#	Name: ASD07300695
#	Creating user name:	WinNT
#	Creation time:	15. 06. 2019 21:10

#	Modifying user name:	WinNT
#	Modification time:	15. 06. 2019 21:10

#	Program:	/corina/corina34_cracker 3.40 0067  02.08.2006

@<TRIPOS>MOLECULE
ASD07300695
  43   46    0    0    0
SMALL
NO_CHARGES


@<TRIPOS>ATOM
   1 C1            -0.0173     1.4131    -0.0101 C.2     
   2 C2             0.0021    -0.0041     0.0020 C.2     
   3 N3             1.1774     2.0867    -0.0173 N.pl3   
   4 N4             1.1570    -0.6391     0.0061 N.2     
   5 C5             2.3155     0.0274    -0.0010 C.2     
   6 C6             2.3478     1.3754    -0.0130 C.2     
   7 N7            -0.9993     2.3006    -0.0113 N.2     
   8 C8            -0.4899     3.5280    -0.0247 C.2     
   9 C9             0.8860     3.4242    -0.0279 C.2     
  10 C10            2.9631     4.5204     0.8136 C.ar    
  11 C11            1.8548     4.5381    -0.0378 C.ar    
  12 C12            1.6757     5.6277    -0.9014 C.ar    
  13 C13            2.6073     6.6456    -0.8758 C.ar    
  14 C14            3.6895     6.5573     0.0028 C.ar    
  15 N15            3.8294     5.5093     0.8083 N.ar    
  16 C16            4.6908     7.6414     0.0369 C.2     
  17 C17            5.7224     7.5660     0.8685 C.2     
  18 N18           -1.1861    -0.7177     0.0100 N.pl3   
  19 C19           -1.1896    -2.1845    -0.1073 C.3     
  20 C20           -2.0523    -2.7578     1.0227 C.3     
  21 O21           -3.3301    -2.1170     1.0109 O.3     
  22 C22           -3.2811    -0.7091     1.2547 C.3     
  23 C23           -2.4811    -0.0313     0.1422 C.3     
  24 C24           -1.2789     4.8119    -0.0304 C.3     
  25 H25            3.2438    -0.5245     0.0027 H       
  26 H26            3.2954     1.8935    -0.0192 H       
  27 H27            3.1072     3.6874     1.4857 H       
  28 H28            0.8292     5.6694    -1.5708 H       
  29 H29            2.5010     7.5000    -1.5278 H       
  30 H30            4.5840     8.4958    -0.6150 H       
  31 H31            6.4550     8.3592     0.8934 H       
  32 H32            5.8292     6.7116     1.5203 H       
  33 H33           -1.6073    -2.4747    -1.0714 H       
  34 H34           -0.1710    -2.5622    -0.0194 H       
  35 H35           -2.1813    -3.8299     0.8742 H       
  36 H36           -1.5638    -2.5784     1.9805 H       
  37 H37           -4.2942    -0.3073     1.2730 H       
  38 H38           -2.7971    -0.5223     2.2133 H       
  39 H39           -2.3172     1.0162     0.3953 H       
  40 H40           -3.0310    -0.1010    -0.7963 H       
  41 H41           -1.4622     5.1303     0.9958 H       
  42 H42           -0.7144     5.5830    -0.5546 H       
  43 H43           -2.2308     4.6512    -0.5365 H       
@<TRIPOS>BOND
   1    1    2 1
   2    1    3 1
   3    1    7 2
   4    2    4 2
   5    2   18 1
   6    3    6 1
   7    3    9 1
   8    4    5 1
   9    5    6 2
  10    5   25 1
  11    6   26 1
  12    7    8 1
  13    8    9 2
  14    8   24 1
  15    9   11 1
  16   10   11 ar
  17   10   15 ar
  18   10   27 1
  19   11   12 ar
  20   12   13 ar
  21   12   28 1
  22   13   14 ar
  23   13   29 1
  24   14   15 ar
  25   14   16 1
  26   16   17 2
  27   16   30 1
  28   17   31 1
  29   17   32 1
  30   18   19 1
  31   18   23 1
  32   19   20 1
  33   19   33 1
  34   19   34 1
  35   20   21 1
  36   20   35 1
  37   20   36 1
  38   21   22 1
  39   22   23 1
  40   22   37 1
  41   22   38 1
  42   23   39 1
  43   23   40 1
  44   24   41 1
  45   24   42 1
  46   24   43 1

#	End of record

