#	Name: ASD03092955
#	Creating user name:	WinNT
#	Creation time:	15. 06. 2019 20:33

#	Modifying user name:	WinNT
#	Modification time:	15. 06. 2019 20:33

#	Program:	/corina/corina34_cracker 3.40 0067  02.08.2006

@<TRIPOS>MOLECULE
ASD03092955
  47   49    0    0    0
SMALL
NO_CHARGES


@<TRIPOS>ATOM
   1 C1            -0.0184     1.5028     0.0103 C.3     
   2 C2             0.0021    -0.0041     0.0020 C.ar    
   3 C3             0.0058    -0.6873    -1.2005 C.ar    
   4 C4             0.0249    -2.0679    -1.2119 C.ar    
   5 C5             0.0405    -2.7709    -0.0132 C.ar    
   6 S6             0.0656    -4.5327    -0.0229 S.3     
   7 C7             0.0798    -4.9504     1.7423 C.3     
   8 C8             0.1022    -6.4714     1.9064 C.3     
   9 H9             0.5894    -7.0238     1.1028 H       
  10 C10           -1.1026    -7.1266     2.5846 C.3     
  11 H11           -1.9112    -6.4741     2.9140 H       
  12 C12           -1.5249    -8.4863     2.0906 C.ar    
  13 C13           -0.7284    -9.1740     1.1942 C.ar    
  14 C14           -1.1158   -10.4212     0.7411 C.ar    
  15 C15           -2.2993   -10.9809     1.1848 C.ar    
  16 C16           -3.0953   -10.2936     2.0819 C.ar    
  17 C17           -2.7058    -9.0482     2.5383 C.ar    
  18 S18           -2.7936   -12.5702     0.6063 S.o2    
  19 N19           -2.1595   -13.6902     1.6484 N.am    
  20 O20           -4.2048   -12.6323     0.7606 O.2     
  21 O21           -2.1386   -12.7653    -0.6395 O.2     
  22 C22            0.2330    -7.0270     3.3259 C.3     
  23 C23            1.0371    -8.3156     3.5089 C.3     
  24 C24            0.3313    -6.0190     4.4728 C.3     
  25 C25            0.0368    -2.0810     1.1932 C.ar    
  26 C26            0.0229    -0.7003     1.1969 C.ar    
  27 H27            1.0042     1.8801     0.0026 H       
  28 H28           -0.5455     1.8639    -0.8728 H       
  29 H29           -0.5286     1.8543     0.9071 H       
  30 H30           -0.0067    -0.1403    -2.1316 H       
  31 H31            0.0274    -2.6008    -2.1513 H       
  32 H32            0.9659    -4.5214     2.2101 H       
  33 H33           -0.8139    -4.5467     2.2183 H       
  34 H34            0.1962    -8.7367     0.8475 H       
  35 H35           -0.4939   -10.9582     0.0401 H       
  36 H36           -4.0201   -10.7307     2.4283 H       
  37 H37           -3.3259    -8.5129     3.2422 H       
  38 H38           -1.6275   -13.4010     2.4062 H       
  39 H39           -2.3202   -14.6353     1.5011 H       
  40 H40            1.9578    -8.0958     4.0493 H       
  41 H41            0.4462    -9.0353     4.0755 H       
  42 H42            1.2802    -8.7340     2.5322 H       
  43 H43            0.1375    -5.0160     4.0925 H       
  44 H44           -0.4048    -6.2661     5.2377 H       
  45 H45            1.3312    -6.0568     4.9050 H       
  46 H46            0.0488    -2.6241     2.1266 H       
  47 H47            0.0244    -0.1634     2.1340 H       
@<TRIPOS>BOND
   1    1    2 1
   2    1   27 1
   3    1   28 1
   4    1   29 1
   5    2   26 ar
   6    2    3 ar
   7    3    4 ar
   8    3   30 1
   9    4    5 ar
  10    4   31 1
  11    5    6 1
  12    5   25 ar
  13    6    7 1
  14    7    8 1
  15    7   32 1
  16    7   33 1
  17    8    9 1
  18    8   22 1
  19    8   10 1
  20   10   11 1
  21   10   12 1
  22   10   22 1
  23   12   17 ar
  24   12   13 ar
  25   13   14 ar
  26   13   34 1
  27   14   15 ar
  28   14   35 1
  29   15   16 ar
  30   15   18 1
  31   16   17 ar
  32   16   36 1
  33   17   37 1
  34   18   19 am
  35   18   20 2
  36   18   21 2
  37   19   38 1
  38   19   39 1
  39   22   23 1
  40   22   24 1
  41   23   40 1
  42   23   41 1
  43   23   42 1
  44   24   43 1
  45   24   44 1
  46   24   45 1
  47   25   26 ar
  48   25   46 1
  49   26   47 1

#	End of record

