#	Name: ASD03332028
#	Creating user name:	WinNT
#	Creation time:	15. 06. 2019 20:40

#	Modifying user name:	WinNT
#	Modification time:	15. 06. 2019 20:40

#	Program:	/corina/corina34_cracker 3.40 0067  02.08.2006

@<TRIPOS>MOLECULE
ASD03332028
  69   72    0    0    0
SMALL
NO_CHARGES


@<TRIPOS>ATOM
   1 C1            -0.0159     1.3546     0.0395 C.2     
   2 N2             0.0042    -0.0047     0.0507 N.pl3   
   3 C3             1.3084    -0.3957    -0.0353 C.2     
   4 N4             2.0647     0.6761    -0.0780 N.2     
   5 C5             1.2780     1.7736    -0.0305 C.2     
   6 C6             1.7378     3.1734    -0.0515 C.2     
   7 O7             0.9286     4.0801    -0.0038 O.2     
   8 N8             3.0551     3.4490    -0.1236 N.am    
   9 C9             3.5122     4.8407    -0.1445 C.3     
  10 C10            3.4727     5.3690    -1.5799 C.3     
  11 C11            4.3885     4.5181    -2.4620 C.3     
  12 C12            4.9235     4.9138     0.3789 C.2     
  13 C13            2.0398     5.2948    -2.1113 C.3     
  14 C14            3.9501     6.8225    -1.6017 C.3     
  15 O15            5.4894     3.9068     0.7331 O.2     
  16 O16            5.5519     6.0977     0.4517 O.3     
  17 C17            6.9098     6.0928     0.9658 C.3     
  18 C18           -1.1727    -0.8716     0.1550 C.3     
  19 C19           -2.2431    -0.3850    -0.8270 C.3     
  20 C20           -3.1087     0.6795    -0.1606 C.3     
  21 N21           -2.3233     1.4884     0.7736 N.3     
  22 C22           -1.2509     2.2168     0.0796 C.3     
  23 C23            1.7896    -1.7937    -0.0740 C.ar    
  24 C24            2.7311    -2.1857    -1.0290 C.ar    
  25 C25            3.1759    -3.4944    -1.0586 C.ar    
  26 C26            2.6907    -4.4128    -0.1461 C.ar    
  27 C27            1.7576    -4.0297     0.8015 C.ar    
  28 C28            1.3097    -2.7258     0.8466 C.ar    
  29 C29           -3.1854     2.4106     1.5249 C.3     
  30 C30            3.1796    -5.8378    -0.1838 C.3     
  31 F31            3.2052    -1.2886    -1.9210 F       
  32 C32           -2.3801     3.0551     2.6550 C.3     
  33 C33           -3.0703     4.1397     3.4846 C.3     
  34 C34           -2.8160     2.7583     4.0912 C.3     
  35 H35            3.7006     2.7259    -0.1616 H       
  36 H36            2.8598     5.4469     0.4839 H       
  37 H37            4.0484     3.4826    -2.4464 H       
  38 H38            4.3603     4.8944    -3.4845 H       
  39 H39            5.4093     4.5710    -2.0833 H       
  40 H40            1.3874     5.9010    -1.4829 H       
  41 H41            2.0116     5.6711    -3.1339 H       
  42 H42            1.6997     4.2593    -2.0958 H       
  43 H43            4.9708     6.8753    -1.2231 H       
  44 H44            3.9219     7.1988    -2.6243 H       
  45 H45            3.2976     7.4287    -0.9733 H       
  46 H46            6.9123     5.6970     1.9814 H       
  47 H47            7.5366     5.4671     0.3304 H       
  48 H48            7.2998     7.1107     0.9716 H       
  49 H49           -0.8932    -1.8964    -0.0892 H       
  50 H50           -1.5655    -0.8322     1.1710 H       
  51 H51           -1.7610     0.0391    -1.7078 H       
  52 H52           -2.8689    -1.2256    -1.1268 H       
  53 H53           -3.5314     1.3284    -0.9277 H       
  54 H54           -3.9196     0.1931     0.3817 H       
  55 H55           -1.0328     3.1412     0.6145 H       
  56 H56           -1.5668     2.4487    -0.9375 H       
  57 H57            3.9034    -3.8000    -1.7960 H       
  58 H58            1.3827    -4.7526     1.5110 H       
  59 H59            0.5815    -2.4293     1.5871 H       
  60 H60           -3.5576     3.1865     0.8558 H       
  61 H61           -4.0264     1.8600     1.9462 H       
  62 H62            4.0566    -5.9380     0.4556 H       
  63 H63            2.3922    -6.5017     0.1728 H       
  64 H64            3.4438    -6.1043    -1.2072 H       
  65 H65           -1.3127     3.1689     2.4660 H       
  66 H66           -2.4568     4.9668     3.8418 H       
  67 H67           -4.0979     4.3941     3.2253 H       
  68 H68           -3.6765     2.1039     4.2310 H       
  69 H69           -2.0353     2.6766     4.8475 H       
@<TRIPOS>BOND
   1    1    2 1
   2    1    5 2
   3    1   22 1
   4    2    3 1
   5    2   18 1
   6    3    4 2
   7    3   23 1
   8    4    5 1
   9    5    6 1
  10    6    7 2
  11    6    8 am
  12    8    9 1
  13    8   35 1
  14    9   10 1
  15    9   12 1
  16    9   36 1
  17   10   11 1
  18   10   13 1
  19   10   14 1
  20   11   37 1
  21   11   38 1
  22   11   39 1
  23   12   15 2
  24   12   16 1
  25   13   40 1
  26   13   41 1
  27   13   42 1
  28   14   43 1
  29   14   44 1
  30   14   45 1
  31   16   17 1
  32   17   46 1
  33   17   47 1
  34   17   48 1
  35   18   19 1
  36   18   49 1
  37   18   50 1
  38   19   20 1
  39   19   51 1
  40   19   52 1
  41   20   21 1
  42   20   53 1
  43   20   54 1
  44   21   22 1
  45   21   29 1
  46   22   55 1
  47   22   56 1
  48   23   24 ar
  49   23   28 ar
  50   24   25 ar
  51   24   31 1
  52   25   26 ar
  53   25   57 1
  54   26   27 ar
  55   26   30 1
  56   27   28 ar
  57   27   58 1
  58   28   59 1
  59   29   32 1
  60   29   60 1
  61   29   61 1
  62   30   62 1
  63   30   63 1
  64   30   64 1
  65   32   33 1
  66   32   34 1
  67   32   65 1
  68   33   34 1
  69   33   66 1
  70   33   67 1
  71   34   68 1
  72   34   69 1

#	End of record

