#	Name: ASD01948310
#	Creating user name:	WinNT
#	Creation time:	15. 06. 2019 20:14

#	Modifying user name:	WinNT
#	Modification time:	15. 06. 2019 20:14

#	Program:	/corina/corina34_cracker 3.40 0067  02.08.2006

@<TRIPOS>MOLECULE
ASD01948310
  51   53    0    0    0
SMALL
NO_CHARGES


@<TRIPOS>ATOM
   1 C1            -0.3629     1.7191     0.4627 C.2     
   2 N2            -0.7021     0.4007     0.5474 N.am    
   3 C3             0.2393    -0.5608     0.5498 C.2     
   4 C4             1.9518     1.1123     0.3775 C.2     
   5 C5             0.9343     2.0965     0.3781 C.2     
   6 C6             2.9074     2.3888    -1.9126 C.ar    
   7 C7             3.7476     2.1780    -0.8275 C.ar    
   8 N8             3.2846     1.4785     0.2922 N.pl3   
   9 C9             3.3672     3.0795    -3.0170 C.ar    
  10 C10            4.6636     3.5615    -3.0438 C.ar    
  11 C11            5.5044     3.3540    -1.9651 C.ar    
  12 C12            5.0506     2.6635    -0.8563 C.ar    
  13 N13            1.2691     3.4578     0.2915 N.am    
  14 S14            0.0741     4.5988     0.1798 S.o2    
  15 C15           -0.7856     4.2039    -1.3679 C.3     
  16 O16           -0.0904    -1.7347     0.6266 O.2     
  17 C17           -2.1152     0.0250     0.6377 C.3     
  18 F18            5.8715     2.4611     0.1974 F       
  19 I19            5.3550     4.6082    -4.7217 I       
  20 O20           -0.7648     4.3382     1.2967 O.2     
  21 O21            0.7747     5.8295     0.0611 O.2     
  22 C22            1.5932    -0.2223     0.4644 C.2     
  23 C23           -2.4830    -0.8658    -0.5506 C.3     
  24 C24           -2.3578    -0.7380     1.9414 C.3     
  25 C25            2.6495    -1.2970     0.4675 C.3     
  26 C26           -1.9284     5.1768    -1.7034 C.3     
  27 C27           -1.4635     5.0944    -3.1669 C.3     
  28 C28           -0.0712     4.7344    -2.6221 C.3     
  29 H29           -1.1387     2.4705     0.4586 H       
  30 H30            1.8965     2.0092    -1.8951 H       
  31 H31            3.8972     1.2499     1.0087 H       
  32 H32            2.7137     3.2430    -3.8611 H       
  33 H33            6.5161     3.7313    -1.9891 H       
  34 H34            2.2002     3.7296     0.2971 H       
  35 H35           -1.0711     3.1543    -1.4376 H       
  36 H36           -2.7318     0.9238     0.6225 H       
  37 H37           -1.8665    -1.7646    -0.5355 H       
  38 H38           -3.5344    -1.1453    -0.4835 H       
  39 H39           -2.3102    -0.3222    -1.4795 H       
  40 H40           -1.7413    -1.6367     1.9565 H       
  41 H41           -2.0958    -0.1033     2.7880 H       
  42 H42           -3.4092    -1.0175     2.0086 H       
  43 H43            2.1804    -2.2671     0.6314 H       
  44 H44            3.1666    -1.3010    -0.4921 H       
  45 H45            3.3657    -1.1003     1.2653 H       
  46 H46           -2.9210     4.7585    -1.5363 H       
  47 H47           -1.8044     6.1651    -1.2608 H       
  48 H48           -1.9340     4.2882    -3.7298 H       
  49 H49           -1.4941     6.0506    -3.6892 H       
  50 H50            0.5605     5.6019    -2.4308 H       
  51 H51            0.4355     3.9592    -3.1968 H       
@<TRIPOS>BOND
   1    1    2 1
   2    1    5 2
   3    1   29 1
   4    2    3 am
   5    2   17 1
   6    3   22 1
   7    3   16 2
   8    4    5 1
   9    4    8 1
  10    4   22 2
  11    5   13 1
  12    6    7 ar
  13    6    9 ar
  14    6   30 1
  15    7    8 1
  16    7   12 ar
  17    8   31 1
  18    9   10 ar
  19    9   32 1
  20   10   11 ar
  21   10   19 1
  22   11   12 ar
  23   11   33 1
  24   12   18 1
  25   13   14 am
  26   13   34 1
  27   14   15 1
  28   14   20 2
  29   14   21 2
  30   15   26 1
  31   15   28 1
  32   15   35 1
  33   17   23 1
  34   17   24 1
  35   17   36 1
  36   22   25 1
  37   23   37 1
  38   23   38 1
  39   23   39 1
  40   24   40 1
  41   24   41 1
  42   24   42 1
  43   25   43 1
  44   25   44 1
  45   25   45 1
  46   26   27 1
  47   26   46 1
  48   26   47 1
  49   27   28 1
  50   27   48 1
  51   27   49 1
  52   28   50 1
  53   28   51 1

#	End of record

