#	Name: ASD02030250
#	Creating user name:	WinNT
#	Creation time:	15. 06. 2019 20:14

#	Modifying user name:	WinNT
#	Modification time:	15. 06. 2019 20:14

#	Program:	/corina/corina34_cracker 3.40 0067  02.08.2006

@<TRIPOS>MOLECULE
ASD02030250
  46   48    0    0    0
SMALL
NO_CHARGES


@<TRIPOS>ATOM
   1 C1            -0.0164     1.3599     0.0095 C.2     
   2 N2             0.0021    -0.0041     0.0020 N.am    
   3 N3             2.3536     0.0479    -0.0198 N.2     
   4 C4             2.3779     1.3753    -0.0133 C.2     
   5 C5             1.1862     2.0685     0.0018 C.2     
   6 N6            -1.0892    -0.8654     0.0074 N.2     
   7 C7            -0.8931    -2.1371    -0.0017 C.2     
   8 S8             0.8653    -2.3557    -0.0195 S.3     
   9 C9             1.2154    -0.6187    -0.0129 C.2     
  10 O10           -1.0808     1.9586     0.0178 O.2     
  11 C11           -1.9430    -3.2182     0.0020 C.3     
  12 C12           -3.3330    -2.5792     0.0187 C.3     
  13 C13           -4.3989    -3.6768     0.0225 C.3     
  14 C14           -5.7890    -3.0377     0.0392 C.3     
  15 C15            3.6911     2.1147    -0.0211 C.3     
  16 N16            4.4140     1.8393     1.2229 N.pl3   
  17 C17            5.2920     0.7553     1.2952 C.ar    
  18 C18            4.2162     2.7008     2.3912 C.3     
  19 C19            3.0658     2.1542     3.2390 C.3     
  20 C20            5.4851    -0.0592     0.1866 C.ar    
  21 C21            5.9783     0.4928     2.4740 C.ar    
  22 C22            6.8455    -0.5798     2.5421 C.ar    
  23 C23            7.0315    -1.3918     1.4383 C.ar    
  24 C24            6.3538    -1.1301     0.2615 C.ar    
  25 H25            1.1832     3.1485     0.0073 H       
  26 H26           -1.8359    -3.8317    -0.8925 H       
  27 H27           -1.8191    -3.8419     0.8873 H       
  28 H28           -3.4401    -1.9656     0.9133 H       
  29 H29           -3.4569    -1.9555    -0.8666 H       
  30 H30           -4.2918    -4.2903    -0.8720 H       
  31 H31           -4.2751    -4.3005     0.9078 H       
  32 H32           -6.5483    -3.8197     0.0419 H       
  33 H33           -5.8960    -2.4242     0.9338 H       
  34 H34           -5.9128    -2.4141    -0.8461 H       
  35 H35            4.2894     1.7836    -0.8700 H       
  36 H36            3.5046     3.1854    -0.1036 H       
  37 H37            5.1289     2.7207     2.9868 H       
  38 H38            3.9758     3.7113     2.0609 H       
  39 H39            2.9186     2.7951     4.1082 H       
  40 H40            2.1531     2.1343     2.6435 H       
  41 H41            3.3062     1.1436     3.5693 H       
  42 H42            4.9561     0.1446    -0.7327 H       
  43 H43            5.8341     1.1270     3.3363 H       
  44 H44            7.3794    -0.7845     3.4583 H       
  45 H45            7.7108    -2.2295     1.4939 H       
  46 H46            6.5044    -1.7638    -0.6000 H       
@<TRIPOS>BOND
   1    1    2 am
   2    1    5 1
   3    1   10 2
   4    2    6 1
   5    2    9 1
   6    3    4 1
   7    3    9 2
   8    4    5 2
   9    4   15 1
  10    5   25 1
  11    6    7 2
  12    7    8 1
  13    7   11 1
  14    8    9 1
  15   11   12 1
  16   11   26 1
  17   11   27 1
  18   12   13 1
  19   12   28 1
  20   12   29 1
  21   13   14 1
  22   13   30 1
  23   13   31 1
  24   14   32 1
  25   14   33 1
  26   14   34 1
  27   15   16 1
  28   15   35 1
  29   15   36 1
  30   16   17 1
  31   16   18 1
  32   17   21 ar
  33   17   20 ar
  34   18   19 1
  35   18   37 1
  36   18   38 1
  37   19   39 1
  38   19   40 1
  39   19   41 1
  40   20   24 ar
  41   20   42 1
  42   21   22 ar
  43   21   43 1
  44   22   23 ar
  45   22   44 1
  46   23   24 ar
  47   23   45 1
  48   24   46 1

#	End of record

