#	Name: ASD08150383
#	Creating user name:	WinNT
#	Creation time:	15. 06. 2019 21:15

#	Modifying user name:	WinNT
#	Modification time:	15. 06. 2019 21:15

#	Program:	/corina/corina34_cracker 3.40 0067  02.08.2006

@<TRIPOS>MOLECULE
ASD08150383
  47   51    0    0    0
SMALL
NO_CHARGES


@<TRIPOS>ATOM
   1 N1             1.0084     3.1211    -1.6793 N.am    
   2 C2             1.4457     2.5103    -2.7976 C.2     
   3 C3             2.6529     1.7825    -2.7997 C.2     
   4 C4             3.3952     1.6872    -1.6673 C.2     
   5 C5             2.9382     2.3285    -0.4889 C.ar    
   6 C6             3.6701     2.2614     0.7122 C.ar    
   7 N7             3.2462     2.8540     1.7977 N.ar    
   8 C8             2.1020     3.5541     1.8330 C.ar    
   9 C9             1.3016     3.6751     0.6705 C.ar    
  10 C10            1.7321     3.0452    -0.5206 C.ar    
  11 C11            0.1104     4.4062     0.7182 C.ar    
  12 C12           -0.2747     5.0059     1.9055 C.ar    
  13 C13            0.5222     4.8820     3.0516 C.ar    
  14 C14            1.6836     4.1747     3.0214 C.ar    
  15 O15            0.7882     2.5877    -3.8214 O.2     
  16 C16           -1.5374     5.7842     1.9645 C.2     
  17 C17           -0.1913     3.8430    -1.7044 C.ar    
  18 C18           -0.1790     5.2015    -1.9933 C.ar    
  19 C19           -1.3622     5.9143    -2.0183 C.ar    
  20 C20           -2.5620     5.2769    -1.7561 C.ar    
  21 C21           -2.5792     3.9179    -1.4670 C.ar    
  22 C22           -1.3942     3.2002    -1.4462 C.ar    
  23 F23           -3.7175     5.9764    -1.7807 F       
  24 C24           -2.7362     5.4779     1.2912 C.2     
  25 N25           -3.6172     6.3943     1.5939 N.2     
  26 N26           -3.0212     7.3142     2.4649 N.pl3   
  27 C27           -1.7498     6.9231     2.6854 C.2     
  28 C28           -3.6689     8.4949     3.0416 C.3     
  29 O29           -3.7582     3.2921    -1.2094 O.3     
  30 C30           -3.7008     1.8939    -0.9199 C.3     
  31 H31            2.9882     1.2988    -3.7053 H       
  32 H32            4.3206     1.1304    -1.6641 H       
  33 H33            4.5984     1.7101     0.7373 H       
  34 H34           -0.5044     4.5028    -0.1645 H       
  35 H35            0.2102     5.3547     3.9711 H       
  36 H36            2.2854     4.0892     3.9141 H       
  37 H37            0.7563     5.7011    -2.1983 H       
  38 H38           -1.3506     6.9707    -2.2425 H       
  39 H39           -1.4060     2.1430    -1.2257 H       
  40 H40           -2.8987     4.6331     0.6383 H       
  41 H41           -1.0282     7.4241     3.3137 H       
  42 H42           -4.1372     8.2264     3.9886 H       
  43 H43           -2.9232     9.2714     3.2123 H       
  44 H44           -4.4283     8.8655     2.3531 H       
  45 H45           -3.2676     1.3646    -1.7686 H       
  46 H46           -3.0835     1.7308    -0.0365 H       
  47 H47           -4.7075     1.5197    -0.7338 H       
@<TRIPOS>BOND
   1    1    2 am
   2    1   10 1
   3    1   17 1
   4    2    3 1
   5    2   15 2
   6    3    4 2
   7    3   31 1
   8    4    5 1
   9    4   32 1
  10    5    6 ar
  11    5   10 ar
  12    6    7 ar
  13    6   33 1
  14    7    8 ar
  15    8    9 ar
  16    8   14 ar
  17    9   10 ar
  18    9   11 ar
  19   11   12 ar
  20   11   34 1
  21   12   13 ar
  22   12   16 1
  23   13   14 ar
  24   13   35 1
  25   14   36 1
  26   16   24 1
  27   16   27 2
  28   17   18 ar
  29   17   22 ar
  30   18   19 ar
  31   18   37 1
  32   19   20 ar
  33   19   38 1
  34   20   21 ar
  35   20   23 1
  36   21   22 ar
  37   21   29 1
  38   22   39 1
  39   24   25 2
  40   24   40 1
  41   25   26 1
  42   26   27 1
  43   26   28 1
  44   27   41 1
  45   28   42 1
  46   28   43 1
  47   28   44 1
  48   29   30 1
  49   30   45 1
  50   30   46 1
  51   30   47 1

#	End of record

