#	Name: ASD01840508
#	Creating user name:	WinNT
#	Creation time:	15. 06. 2019 19:37

#	Modifying user name:	WinNT
#	Modification time:	15. 06. 2019 19:37

#	Program:	/corina/corina34_cracker 3.40 0067  02.08.2006

@<TRIPOS>MOLECULE
ASD01840508
  38   40    0    0    0
SMALL
NO_CHARGES


@<TRIPOS>ATOM
   1 Cl1            0.0000     0.0000     0.0000 Cl      
   2 H2             0.0000     1.3700     0.0000 H       
   3 C3             6.8315    17.0882    11.5498 C.3     
   4 C4             6.8857    15.5822    11.5416 C.ar    
   5 N5             6.9187    14.9426    10.3956 N.ar    
   6 C6             6.9678    13.6082    10.3236 C.ar    
   7 S7             7.0187    12.5679     8.9071 S.3     
   8 C8             7.0638    11.1041     9.8698 C.ar    
   9 C9             7.1175     9.7481     9.4937 C.ar    
  10 N10            7.1431     9.3945     8.1478 N.pl3   
  11 C11            7.1989     7.9822     7.7624 C.3     
  12 C12            5.8792     7.4502     7.1791 C.3     
  13 C13            6.3969     7.9012     5.8031 C.3     
  14 C14            7.8164     7.7464     6.3739 C.3     
  15 N15            7.1437     8.8142    10.4274 N.ar    
  16 N16            7.1222     9.0930    11.6785 N.ar    
  17 C17            7.0726    10.3244    12.1318 C.ar    
  18 C18            7.0406    11.4043    11.2258 C.ar    
  19 C19            6.9852    12.8488    11.4883 C.ar    
  20 C20            6.9497    13.5141    12.7305 C.ar    
  21 C21            6.9673    12.7340    14.0197 C.3     
  22 C22            6.9056    14.8932    12.7441 C.ar    
  23 Cl23           6.8685    15.7553    14.2504 Cl      
  24 H24            7.8454    17.4882    11.5560 H       
  25 H25            6.3083    17.4378    10.6598 H       
  26 H26            6.3015    17.4278    12.4397 H       
  27 H27            7.1240    10.0831     7.4650 H       
  28 H28            7.6208     7.3472     8.5415 H       
  29 H29            5.7655     6.3700     7.2702 H       
  30 H30            5.0000     7.9993     7.5162 H       
  31 H31            6.1704     7.1999     5.0000 H       
  32 H32            6.1361     8.9299     5.5541 H       
  33 H33            8.5012     8.5347     6.0611 H       
  34 H34            8.2323     6.7472     6.2450 H       
  35 H35            7.0566    10.5095    13.1957 H       
  36 H36            7.9961    12.4843    14.2793 H       
  37 H37            6.5278    13.3362    14.8149 H       
  38 H38            6.3907    11.8170    13.8975 H       
@<TRIPOS>BOND
   1    1    2 1
   2    3    4 1
   3    3   24 1
   4    3   25 1
   5    3   26 1
   6    4   22 ar
   7    4    5 ar
   8    5    6 ar
   9    6   19 ar
  10    6    7 1
  11    7    8 1
  12    8   18 ar
  13    8    9 ar
  14    9   10 1
  15    9   15 ar
  16   10   11 1
  17   10   27 1
  18   11   14 1
  19   11   12 1
  20   11   28 1
  21   12   13 1
  22   12   29 1
  23   12   30 1
  24   13   14 1
  25   13   31 1
  26   13   32 1
  27   14   33 1
  28   14   34 1
  29   15   16 ar
  30   16   17 ar
  31   17   18 ar
  32   17   35 1
  33   18   19 1
  34   19   20 ar
  35   20   21 1
  36   20   22 ar
  37   21   36 1
  38   21   37 1
  39   21   38 1
  40   22   23 1

#	End of record

