#	Name: ASD01140295
#	Creating user name:	WinNT
#	Creation time:	15. 06. 2019 19:00

#	Modifying user name:	WinNT
#	Modification time:	15. 06. 2019 19:00

#	Program:	/corina/corina34_cracker 3.40 0067  02.08.2006

@<TRIPOS>MOLECULE
ASD01140295
  50   53    0    0    0
SMALL
NO_CHARGES


@<TRIPOS>ATOM
   1 C1             0.1548     1.0797    -2.2008 C.ar    
   2 C2             0.2752    -0.3027    -2.3677 C.ar    
   3 C3             1.4651    -0.9447    -2.0246 C.ar    
   4 C4             2.5191    -0.1999    -1.5207 C.ar    
   5 C5             2.4071     1.1974    -1.3905 C.ar    
   6 C6             1.2112     1.8212    -1.7159 C.ar    
   7 C7             3.7809    -0.8567    -1.0720 C.2     
   8 N8             4.8911    -0.4490    -1.5809 N.2     
   9 C9             5.0129     0.7049    -2.4654 C.3     
  10 C10            4.8269     1.9860    -1.6623 C.3     
  11 N11            3.5125     1.9109    -0.9779 N.pl3   
  12 C12            3.6872     2.5221     0.2363 C.2     
  13 C13            5.8006     2.1679    -0.5019 C.3     
  14 N14            4.9208     2.6609     0.5759 N.2     
  15 S15            3.7433     0.6122    -3.7577 S.3     
  16 C16            3.7574    -1.9459    -0.0695 C.ar    
  17 C17            4.9315    -2.6349     0.2460 C.ar    
  18 C18            2.5644    -2.2854     0.5683 C.ar    
  19 C19            2.5486    -3.3013     1.5015 C.ar    
  20 C20            3.7129    -3.9841     1.8068 C.ar    
  21 C21            4.9012    -3.6509     1.1832 C.ar    
  22 C22           -0.8225    -1.0596    -2.8900 C.1     
  23 C23           -1.7224    -1.6801    -3.3183 C.1     
  24 F24            6.0926    -2.3094    -0.3631 F       
  25 C25            4.6875     0.1073    -5.2220 C.3     
  26 C26            6.4303     0.8531    -0.1201 C.2     
  27 O27            5.8122     0.0587     0.5482 O.2     
  28 O28            7.6780     0.5646    -0.5224 O.3     
  29 C29            8.2696    -0.6584    -0.0099 C.3     
  30 C30            9.7313    -0.7429    -0.4541 C.3     
  31 H31           -0.7716     1.5716    -2.4578 H       
  32 H32            1.5638    -2.0128    -2.1503 H       
  33 H33            1.1077     2.8888    -1.5894 H       
  34 H34            6.0005     0.7059    -2.9268 H       
  35 H35            4.8529     2.8495    -2.3270 H       
  36 H36            2.8652     2.8569     0.8515 H       
  37 H37            6.5631     2.9069    -0.7482 H       
  38 H38            1.6545    -1.7536     0.3324 H       
  39 H39            1.6250    -3.5643     1.9955 H       
  40 H40            3.6941    -4.7783     2.5385 H       
  41 H41            5.8064    -4.1877     1.4259 H       
  42 H42           -2.5272    -2.2351    -3.7013 H       
  43 H43            4.0149     0.0183    -6.0751 H       
  44 H44            5.4509     0.8548    -5.4376 H       
  45 H45            5.1640    -0.8546    -5.0331 H       
  46 H46            8.2203    -0.6573     1.0789 H       
  47 H47            7.7218    -1.5172    -0.3977 H       
  48 H48           10.1755    -1.6610    -0.0694 H       
  49 H49            9.7807    -0.7439    -1.5430 H       
  50 H50           10.2791     0.1160    -0.0664 H       
@<TRIPOS>BOND
   1    1    2 ar
   2    1    6 ar
   3    1   31 1
   4    2    3 ar
   5    2   22 1
   6    3    4 ar
   7    3   32 1
   8    4    5 ar
   9    4    7 1
  10    5    6 ar
  11    5   11 1
  12    6   33 1
  13    7    8 2
  14    7   16 1
  15    8    9 1
  16    9   10 1
  17    9   15 1
  18    9   34 1
  19   10   11 1
  20   10   13 1
  21   10   35 1
  22   11   12 1
  23   12   14 2
  24   12   36 1
  25   13   14 1
  26   13   26 1
  27   13   37 1
  28   15   25 1
  29   16   17 ar
  30   16   18 ar
  31   17   24 1
  32   17   21 ar
  33   18   19 ar
  34   18   38 1
  35   19   20 ar
  36   19   39 1
  37   20   21 ar
  38   20   40 1
  39   21   41 1
  40   22   23 3
  41   23   42 1
  42   25   43 1
  43   25   44 1
  44   25   45 1
  45   26   27 2
  46   26   28 1
  47   28   29 1
  48   29   30 1
  49   29   46 1
  50   29   47 1
  51   30   48 1
  52   30   49 1
  53   30   50 1

#	End of record

