#	Name: ASD02039272
#	Creating user name:	WinNT
#	Creation time:	15. 06. 2019 20:18

#	Modifying user name:	WinNT
#	Modification time:	15. 06. 2019 20:18

#	Program:	/corina/corina34_cracker 3.40 0067  02.08.2006

@<TRIPOS>MOLECULE
ASD02039272
  48   50    0    0    0
SMALL
NO_CHARGES


@<TRIPOS>ATOM
   1 C1            -0.0923     1.1381    -0.3182 C.ar    
   2 C2             0.0414    -0.2311    -0.4545 C.ar    
   3 C3            -1.0875    -1.0061    -0.6806 C.ar    
   4 C4            -2.3165    -0.3750    -0.7622 C.ar    
   5 C5            -2.3777     1.0093    -0.6154 C.ar    
   6 N6            -1.2753     1.7133    -0.3949 N.ar    
   7 C7            -3.6874     1.7009    -0.7008 C.ar    
   8 C8            -3.7582     3.0850    -0.5551 C.ar    
   9 C9            -4.9793     3.7232    -0.6354 C.ar    
  10 C10           -6.1315     2.9915    -0.8600 C.ar    
  11 C11           -6.0671     1.6174    -1.0053 C.ar    
  12 C12           -4.8507     0.9694    -0.9326 C.ar    
  13 C13            1.1308     1.9836    -0.0726 C.3     
  14 N14            1.6262     2.5078    -1.3478 N.am    
  15 C15            1.1383     3.7946    -1.8499 C.3     
  16 C16            2.5309     1.8061    -2.0589 C.2     
  17 C17            2.9581     2.2857    -3.3847 C.2     
  18 C18            3.9381     1.7412    -4.1620 C.2     
  19 C19            2.1194     4.9008    -1.4564 C.3     
  20 N20            2.4443     3.3466    -4.0582 N.2     
  21 C21            3.0691     3.4670    -5.1938 C.2     
  22 N22            4.0038     2.4859    -5.2906 N.pl3   
  23 O23            2.9946     0.7769    -1.6060 O.2     
  24 C24            4.9191     2.2726    -6.4144 C.3     
  25 O25            3.3686     4.6865    -2.1163 O.3     
  26 C26            4.3611     5.6696    -1.8154 C.3     
  27 H27            1.0152    -0.6933    -0.3859 H       
  28 H28           -1.0087    -2.0775    -0.7907 H       
  29 H29           -3.2154    -0.9473    -0.9376 H       
  30 H30           -2.8592     3.6572    -0.3794 H       
  31 H31           -5.0353     4.7958    -0.5223 H       
  32 H32           -7.0849     3.4949    -0.9218 H       
  33 H33           -6.9699     1.0510    -1.1802 H       
  34 H34           -4.8015    -0.1034    -1.0465 H       
  35 H35            0.8727     2.8132     0.5856 H       
  36 H36            1.9048     1.3755     0.3956 H       
  37 H37            1.0546     3.7527    -2.9359 H       
  38 H38            0.1602     4.0059    -1.4180 H       
  39 H39            4.5456     0.8808    -3.9226 H       
  40 H40            1.7137     5.8683    -1.7518 H       
  41 H41            2.2712     4.8847    -0.3771 H       
  42 H42            2.8739     4.2230    -5.9399 H       
  43 H43            5.8376     2.8349    -6.2466 H       
  44 H44            5.1527     1.2111    -6.4962 H       
  45 H45            4.4479     2.6131    -7.3364 H       
  46 H46            5.2791     5.4361    -2.3548 H       
  47 H47            4.0019     6.6531    -2.1184 H       
  48 H48            4.5594     5.6694    -0.7436 H       
@<TRIPOS>BOND
   1    1    2 ar
   2    1   13 1
   3    1    6 ar
   4    2    3 ar
   5    2   27 1
   6    3    4 ar
   7    3   28 1
   8    4    5 ar
   9    4   29 1
  10    5    6 ar
  11    5    7 1
  12    7    8 ar
  13    7   12 ar
  14    8    9 ar
  15    8   30 1
  16    9   10 ar
  17    9   31 1
  18   10   11 ar
  19   10   32 1
  20   11   12 ar
  21   11   33 1
  22   12   34 1
  23   13   14 1
  24   13   35 1
  25   13   36 1
  26   14   15 1
  27   14   16 am
  28   15   19 1
  29   15   37 1
  30   15   38 1
  31   16   17 1
  32   16   23 2
  33   17   18 2
  34   17   20 1
  35   18   22 1
  36   18   39 1
  37   19   25 1
  38   19   40 1
  39   19   41 1
  40   20   21 2
  41   21   22 1
  42   21   42 1
  43   22   24 1
  44   24   43 1
  45   24   44 1
  46   24   45 1
  47   25   26 1
  48   26   46 1
  49   26   47 1
  50   26   48 1

#	End of record

