#	Name: ASD09530007
#	Creating user name:	WinNT
#	Creation time:	15. 06. 2019 21:22

#	Modifying user name:	WinNT
#	Modification time:	15. 06. 2019 21:22

#	Program:	/corina/corina34_cracker 3.40 0067  02.08.2006

@<TRIPOS>MOLECULE
ASD09530007
  41   43    0    0    0
SMALL
NO_CHARGES


@<TRIPOS>ATOM
   1 N1             0.1161     1.0978     0.6430 N.am    
   2 C2             0.2191    -0.2318     0.6170 C.2     
   3 C3             1.5312    -0.9493     0.4539 C.3     
   4 N4             2.5547     0.0195     0.0343 N.am    
   5 C5             2.5625     1.3285     0.7090 C.3     
   6 C6             1.2253     2.0174     0.4300 C.3     
   7 O7            -0.7915    -0.8926     0.7304 O.2     
   8 C8             3.4497    -0.2786    -0.9283 C.2     
   9 C9             3.4996    -1.5865    -1.4680 C.2     
  10 C10            4.4890    -1.9258    -2.3408 C.2     
  11 O11            4.2154     0.5770    -1.3338 O.2     
  12 C12            4.5411    -3.2915    -2.9044 C.ar    
  13 C13            3.5203    -3.7434    -3.7433 C.ar    
  14 C14            3.5752    -5.0188    -4.2657 C.ar    
  15 C15            4.6386    -5.8499    -3.9601 C.ar    
  16 C16            5.6533    -5.4086    -3.1291 C.ar    
  17 C17            5.6141    -4.1333    -2.6048 C.ar    
  18 C18            5.5105    -0.9285    -2.7243 C.ar    
  19 C19            6.3987    -0.4311    -1.7685 C.ar    
  20 C20            7.3494     0.4994    -2.1332 C.ar    
  21 C21            7.4241     0.9400    -3.4428 C.ar    
  22 C22            6.5468     0.4516    -4.3950 C.ar    
  23 C23            5.5953    -0.4838    -4.0453 C.ar    
  24 H24           -0.7598     1.4791     0.8117 H       
  25 H25            1.8217    -1.3992     1.4033 H       
  26 H26            1.4308    -1.7258    -0.3044 H       
  27 H27            2.6869     1.1881     1.7827 H       
  28 H28            3.3783     1.9379     0.3202 H       
  29 H29            1.2095     2.3653    -0.6029 H       
  30 H30            1.1159     2.8722     1.0975 H       
  31 H31            2.7533    -2.3151    -1.1878 H       
  32 H32            2.6896    -3.0959    -3.9823 H       
  33 H33            2.7862    -5.3698    -4.9143 H       
  34 H34            4.6767    -6.8476    -4.3718 H       
  35 H35            6.4800    -6.0626    -2.8941 H       
  36 H36            6.4093    -3.7883    -1.9605 H       
  37 H37            6.3411    -0.7739    -0.7459 H       
  38 H38            8.0367     0.8852    -1.3948 H       
  39 H39            8.1704     1.6687    -3.7230 H       
  40 H40            6.6102     0.8003    -5.4152 H       
  41 H41            4.9145    -0.8680    -4.7905 H       
@<TRIPOS>BOND
   1    1    2 am
   2    1    6 1
   3    1   24 1
   4    2    3 1
   5    2    7 2
   6    3    4 1
   7    3   25 1
   8    3   26 1
   9    4    5 1
  10    4    8 am
  11    5    6 1
  12    5   27 1
  13    5   28 1
  14    6   29 1
  15    6   30 1
  16    8    9 1
  17    8   11 2
  18    9   10 2
  19    9   31 1
  20   10   12 1
  21   10   18 1
  22   12   13 ar
  23   12   17 ar
  24   13   14 ar
  25   13   32 1
  26   14   15 ar
  27   14   33 1
  28   15   16 ar
  29   15   34 1
  30   16   17 ar
  31   16   35 1
  32   17   36 1
  33   18   19 ar
  34   18   23 ar
  35   19   20 ar
  36   19   37 1
  37   20   21 ar
  38   20   38 1
  39   21   22 ar
  40   21   39 1
  41   22   23 ar
  42   22   40 1
  43   23   41 1

#	End of record

