#	Name: ASD02198363
#	Creating user name:	WinNT
#	Creation time:	15. 06. 2019 20:19

#	Modifying user name:	WinNT
#	Modification time:	15. 06. 2019 20:19

#	Program:	/corina/corina34_cracker 3.40 0067  02.08.2006

@<TRIPOS>MOLECULE
ASD02198363
  37   39    0    0    0
SMALL
NO_CHARGES


@<TRIPOS>ATOM
   1 C1             0.0017     1.4017     0.2385 C.2     
   2 C2             0.0125     0.0162     0.2367 C.2     
   3 S3             1.6713     1.9494     0.1116 S.3     
   4 C4             2.2168     0.3308     0.0689 C.2     
   5 N5             1.2154    -0.4984     0.1446 N.2     
   6 N6            -1.1362    -0.7513     0.3241 N.pl3   
   7 C7            -1.1297     2.2173     0.3201 C.2     
   8 C8            -0.9799     3.7168     0.3105 C.3     
   9 O9            -2.2358     1.7171     0.3989 O.2     
  10 N10            3.5370    -0.0461    -0.0324 N.pl3   
  11 C11           -2.2714     4.3723    -0.2091 C.3     
  12 C12            3.8880    -1.3965     0.0626 C.ar    
  13 C13            4.9923    -1.8786    -0.6282 C.ar    
  14 C14            5.3366    -3.2126    -0.5326 C.ar    
  15 C15            4.5824    -4.0688     0.2505 C.ar    
  16 C16            3.4816    -3.5911     0.9399 C.ar    
  17 C17            3.1362    -2.2568     0.8525 C.ar    
  18 Cl18           5.0177    -5.7452     0.3680 Cl      
  19 C19           -2.8009     5.2670     0.9306 C.3     
  20 C20           -1.5465     5.5755     1.7853 C.3     
  21 C21           -0.7695     4.2361     1.7478 C.3     
  22 H22           -2.0030    -0.3211     0.3908 H       
  23 H23           -1.0742    -1.7193     0.3187 H       
  24 H24           -0.1367     4.0035    -0.3180 H       
  25 H25            4.2238     0.6250    -0.1696 H       
  26 H26           -2.0550     4.9778    -1.0892 H       
  27 H27           -3.0066     3.6058    -0.4543 H       
  28 H28            5.5810    -1.2109    -1.2398 H       
  29 H29            6.1950    -3.5881    -1.0698 H       
  30 H30            2.8946    -4.2615     1.5501 H       
  31 H31            2.2770    -1.8846     1.3907 H       
  32 H32           -3.2239     6.1873     0.5280 H       
  33 H33           -3.5434     4.7316     1.5223 H       
  34 H34           -0.9592     6.3755     1.3346 H       
  35 H35           -1.8283     5.8301     2.8070 H       
  36 H36           -1.1840     3.5342     2.4715 H       
  37 H37            0.2899     4.4041     1.9415 H       
@<TRIPOS>BOND
   1    1    2 2
   2    1    3 1
   3    1    7 1
   4    2    6 1
   5    2    5 1
   6    3    4 1
   7    4    5 2
   8    4   10 1
   9    6   22 1
  10    6   23 1
  11    7    8 1
  12    7    9 2
  13    8   11 1
  14    8   21 1
  15    8   24 1
  16   10   12 1
  17   10   25 1
  18   11   19 1
  19   11   26 1
  20   11   27 1
  21   12   13 ar
  22   12   17 ar
  23   13   14 ar
  24   13   28 1
  25   14   15 ar
  26   14   29 1
  27   15   16 ar
  28   15   18 1
  29   16   17 ar
  30   16   30 1
  31   17   31 1
  32   19   20 1
  33   19   32 1
  34   19   33 1
  35   20   21 1
  36   20   34 1
  37   20   35 1
  38   21   36 1
  39   21   37 1

#	End of record

