#	Name: ASD00111098
#	Creating user name:	WinNT
#	Creation time:	15. 06. 2019 18:30

#	Modifying user name:	WinNT
#	Modification time:	15. 06. 2019 18:30

#	Program:	/corina/corina34_cracker 3.40 0067  02.08.2006

@<TRIPOS>MOLECULE
ASD00111098
  41   41    0    0    0
SMALL
NO_CHARGES


@<TRIPOS>ATOM
   1 C1            -0.7837     1.1426     0.1430 C.2     
   2 C2            -0.8305    -0.3399     0.4098 C.3     
   3 C3             0.5647    -0.9061     0.3456 C.ar    
   4 C4             1.1437    -1.1798    -0.8806 C.ar    
   5 C5             2.4240    -1.6990    -0.9425 C.ar    
   6 C6             3.1276    -1.9455     0.2207 C.ar    
   7 C7             2.5490    -1.6718     1.4512 C.ar    
   8 C8             1.2663    -1.1460     1.5108 C.ar    
   9 O9             0.2777     1.6859    -0.0757 O.2     
  10 N10           -1.9225     1.8634     0.1420 N.am    
  11 O11            3.2393    -1.9135     2.5967 O.3     
  12 C12            4.5566    -2.4501     2.4594 C.3     
  13 I13            0.0793    -0.8079    -2.6463 I       
  14 C14           -3.1120     1.2442     0.2765 C.2     
  15 O15           -3.1677     0.0332     0.2831 O.2     
  16 C16           -4.3729     2.0572     0.4187 C.3     
  17 F17           -5.4647     1.1989     0.5875 F       
  18 F18           -4.2633     2.8968     1.5324 F       
  19 F19           -4.5613     2.8307    -0.7317 F       
  20 C20           -1.8674     3.3199    -0.0053 C.3     
  21 C21           -1.9355     3.6799    -1.4670 C.2     
  22 C22           -1.0428     4.4865    -1.9852 C.2     
  23 C23           -0.0554     5.1916    -1.0914 C.3     
  24 C24           -1.0033     4.7093    -3.4751 C.3     
  25 H25           -1.2495    -0.5177     1.4002 H       
  26 H26           -1.4543    -0.8247    -0.3411 H       
  27 H27            2.8740    -1.9123    -1.9008 H       
  28 H28            4.1273    -2.3513     0.1719 H       
  29 H29            0.8156    -0.9280     2.4677 H       
  30 H30            5.1732    -1.7575     1.8865 H       
  31 H31            4.9947    -2.5950     3.4469 H       
  32 H32            4.5068    -3.4071     1.9400 H       
  33 H33           -2.7100     3.7703     0.5195 H       
  34 H34           -0.9346     3.6928     0.4177 H       
  35 H35           -2.7203     3.2730    -2.0874 H       
  36 H36           -0.1877     4.8515    -0.0643 H       
  37 H37            0.9588     4.9659    -1.4211 H       
  38 H38           -0.2230     6.2675    -1.1423 H       
  39 H39           -1.6467     5.5502    -3.7340 H       
  40 H40            0.0196     4.9263    -3.7830 H       
  41 H41           -1.3541     3.8127    -3.9860 H       
@<TRIPOS>BOND
   1    1    2 1
   2    1    9 2
   3    1   10 am
   4    2    3 1
   5    2   25 1
   6    2   26 1
   7    3    4 ar
   8    3    8 ar
   9    4    5 ar
  10    4   13 1
  11    5    6 ar
  12    5   27 1
  13    6    7 ar
  14    6   28 1
  15    7    8 ar
  16    7   11 1
  17    8   29 1
  18   10   14 am
  19   10   20 1
  20   11   12 1
  21   12   30 1
  22   12   31 1
  23   12   32 1
  24   14   15 2
  25   14   16 1
  26   16   17 1
  27   16   18 1
  28   16   19 1
  29   20   21 1
  30   20   33 1
  31   20   34 1
  32   21   22 2
  33   21   35 1
  34   22   23 1
  35   22   24 1
  36   23   36 1
  37   23   37 1
  38   23   38 1
  39   24   39 1
  40   24   40 1
  41   24   41 1

#	End of record

