#	Name: ASD02408396
#	Creating user name:	WinNT
#	Creation time:	15. 06. 2019 20:21

#	Modifying user name:	WinNT
#	Modification time:	15. 06. 2019 20:21

#	Program:	/corina/corina34_cracker 3.40 0067  02.08.2006

@<TRIPOS>MOLECULE
ASD02408396
  28   29    0    0    0
SMALL
NO_CHARGES


@<TRIPOS>ATOM
   1 C1            -0.0735     1.0734     0.2053 C.2     
   2 C2             0.1418     0.1887     1.2885 C.2     
   3 C3             1.1793     1.5153    -0.2143 C.2     
   4 N4             2.0963     0.9216     0.5814 N.pl3   
   5 N5             1.4251     0.1078     1.5003 N.2     
   6 C6             3.4848     1.0925     0.4999 C.ar    
   7 C7             4.0247     2.3685     0.4120 C.ar    
   8 C8             5.3938     2.5336     0.3323 C.ar    
   9 C9             6.2263     1.4298     0.3394 C.ar    
  10 C10            5.6915     0.1573     0.4264 C.ar    
  11 C11            4.3239    -0.0140     0.5126 C.ar    
  12 N12            1.4356     2.3933    -1.2474 N.pl3   
  13 C13           -1.3700     1.4492    -0.3709 C.2     
  14 N14           -2.5076     0.9355     0.1374 N.am    
  15 O15           -1.4178     2.2247    -1.3074 O.2     
  16 C16            3.7420    -1.4009     0.6079 C.3     
  17 H17           -0.6254    -0.3299     1.8443 H       
  18 H18            3.3749     3.2311     0.4057 H       
  19 H19            5.8144     3.5260     0.2639 H       
  20 H20            7.2964     1.5614     0.2766 H       
  21 H21            6.3443    -0.7031     0.4310 H       
  22 H22            0.7013     2.8359    -1.7012 H       
  23 H23            2.3500     2.5680    -1.5199 H       
  24 H24           -2.4695     0.3173     0.8840 H       
  25 H25           -3.3645     1.1838    -0.2434 H       
  26 H26            3.5623    -1.6484     1.6541 H       
  27 H27            2.8011    -1.4386     0.0588 H       
  28 H28            4.4416    -2.1186     0.1796 H       
@<TRIPOS>BOND
   1    1    2 1
   2    1    3 2
   3    1   13 1
   4    2    5 2
   5    2   17 1
   6    3    4 1
   7    3   12 1
   8    4    5 1
   9    4    6 1
  10    6    7 ar
  11    6   11 ar
  12    7    8 ar
  13    7   18 1
  14    8    9 ar
  15    8   19 1
  16    9   10 ar
  17    9   20 1
  18   10   11 ar
  19   10   21 1
  20   11   16 1
  21   12   22 1
  22   12   23 1
  23   13   14 am
  24   13   15 2
  25   14   24 1
  26   14   25 1
  27   16   26 1
  28   16   27 1
  29   16   28 1

#	End of record

