#	Name: ASD02508290
#	Creating user name:	WinNT
#	Creation time:	15. 06. 2019 20:24

#	Modifying user name:	WinNT
#	Modification time:	15. 06. 2019 20:24

#	Program:	/corina/corina34_cracker 3.40 0067  02.08.2006

@<TRIPOS>MOLECULE
ASD02508290
  56   59    0    0    0
SMALL
NO_CHARGES


@<TRIPOS>ATOM
   1 C1            -0.0168     1.3904     0.0097 C.ar    
   2 C2             0.0021    -0.0041     0.0020 C.ar    
   3 C3            -1.1884    -0.7140     0.0096 C.ar    
   4 C4            -2.3921    -0.0368     0.0247 C.ar    
   5 C5            -2.4119     1.3472     0.0319 C.ar    
   6 C6            -1.2296     2.0613     0.0299 C.ar    
   7 S7            -3.9067    -0.9371     0.0343 S.o2    
   8 N8            -4.6559    -0.6207     1.4769 N.am    
   9 C9            -5.5852     0.5106     1.6047 C.3     
  10 O10            1.2720     1.8106    -0.0004 O.3     
  11 C11            2.0840     0.7419    -0.0139 C.2     
  12 N12            1.3438    -0.3844    -0.0128 N.am    
  13 O13           -4.7225    -0.3609    -0.9764 O.2     
  14 O14           -3.5550    -2.3137     0.0583 O.2     
  15 O15            3.2993     0.7835    -0.0252 O.2     
  16 C16           -3.7296     2.0783     0.0474 C.3     
  17 C17            1.8550    -1.7572    -0.0255 C.3     
  18 C18           -6.9279    -0.0148     2.1275 C.3     
  19 N19           -6.6758    -0.8606     3.3026 N.am    
  20 C20           -5.7465    -1.9919     3.1748 C.3     
  21 C21           -4.4081    -1.4698     2.6505 C.3     
  22 C22           -7.2856    -0.6030     4.4767 C.2     
  23 C23           -7.0173    -1.4790     5.6732 C.3     
  24 O24           -8.0502     0.3337     4.5702 O.2     
  25 C25           -7.8162    -0.9807     6.8498 C.ar    
  26 C26           -9.0923    -1.4631     7.0730 C.ar    
  27 C27           -9.8251    -1.0060     8.1522 C.ar    
  28 C28           -9.2817    -0.0668     9.0087 C.ar    
  29 C29           -8.0052     0.4149     8.7861 C.ar    
  30 C30           -7.2708    -0.0454     7.7092 C.ar    
  31 C31          -10.0810     0.4323    10.1847 C.3     
  32 F32           -9.8332    -0.3810    11.2958 F       
  33 F33           -9.7075     1.7483    10.4776 F       
  34 F34          -11.4441     0.3928     9.8726 F       
  35 H35           -1.1748    -1.7939     0.0033 H       
  36 H36           -1.2502     3.1411     0.0359 H       
  37 H37           -5.1796     1.2398     2.3060 H       
  38 H38           -5.7294     0.9775     0.6303 H       
  39 H39           -4.0381     2.2493     1.0787 H       
  40 H40           -3.6202     3.0353    -0.4626 H       
  41 H41           -4.4837     1.4789    -0.4627 H       
  42 H42            2.9448    -1.7389    -0.0366 H       
  43 H43            1.5095    -2.2818     0.8652 H       
  44 H44            1.4912    -2.2722    -0.9146 H       
  45 H45           -7.5639     0.8241     2.4102 H       
  46 H46           -7.4177    -0.6032     1.3516 H       
  47 H47           -5.6023    -2.4587     4.1491 H       
  48 H48           -6.1521    -2.7210     2.4734 H       
  49 H49           -3.7731    -2.3096     2.3682 H       
  50 H50           -3.9167    -0.8805     3.4246 H       
  51 H51           -7.3076    -2.5046     5.4450 H       
  52 H52           -5.9551    -1.4475     5.9157 H       
  53 H53           -9.5168    -2.1969     6.4038 H       
  54 H54          -10.8223    -1.3824     8.3262 H       
  55 H55           -7.5808     1.1490     9.4550 H       
  56 H56           -6.2735     0.3309     7.5353 H       
@<TRIPOS>BOND
   1    1    2 ar
   2    1   10 1
   3    1    6 ar
   4    2    3 ar
   5    2   12 1
   6    3    4 ar
   7    3   35 1
   8    4    5 ar
   9    4    7 1
  10    5    6 ar
  11    5   16 1
  12    6   36 1
  13    7    8 am
  14    7   13 2
  15    7   14 2
  16    8    9 1
  17    8   21 1
  18    9   18 1
  19    9   37 1
  20    9   38 1
  21   10   11 1
  22   11   12 am
  23   11   15 2
  24   12   17 1
  25   16   39 1
  26   16   40 1
  27   16   41 1
  28   17   42 1
  29   17   43 1
  30   17   44 1
  31   18   19 1
  32   18   45 1
  33   18   46 1
  34   19   20 1
  35   19   22 am
  36   20   21 1
  37   20   47 1
  38   20   48 1
  39   21   49 1
  40   21   50 1
  41   22   23 1
  42   22   24 2
  43   23   25 1
  44   23   51 1
  45   23   52 1
  46   25   26 ar
  47   25   30 ar
  48   26   27 ar
  49   26   53 1
  50   27   28 ar
  51   27   54 1
  52   28   29 ar
  53   28   31 1
  54   29   30 ar
  55   29   55 1
  56   30   56 1
  57   31   32 1
  58   31   33 1
  59   31   34 1

#	End of record

