#	Name: ASD06590004
#	Creating user name:	WinNT
#	Creation time:	15. 06. 2019 21:06

#	Modifying user name:	WinNT
#	Modification time:	15. 06. 2019 21:06

#	Program:	/corina/corina34_cracker 3.40 0067  02.08.2006

@<TRIPOS>MOLECULE
ASD06590004
 285  288    0    0    0
SMALL
NO_CHARGES


@<TRIPOS>ATOM
   1 C1             0.9714     0.4063    -1.2008 C.2     
   2 O2             0.4983    -0.4054    -1.9679 O.2     
   3 N3             2.7670    -1.1828    -0.8269 N.am    
   4 C4             2.3716     0.2197    -0.6757 C.3     
   5 C5             3.3348     1.1091    -1.4645 C.3     
   6 C6             2.9768     2.5786    -1.2340 C.3     
   7 C7             3.2084     2.9355     0.2356 C.3     
   8 C8             3.8579     3.4630    -2.1186 C.3     
   9 C9            -1.5710     3.0746    -1.0091 C.2     
  10 O10           -0.8518     3.8182    -0.3761 O.2     
  11 N11            0.2469     1.4779    -0.8224 N.am    
  12 C12           -1.0835     1.7014    -1.3935 C.3     
  13 C13           -2.0530     0.6470    -0.8558 C.3     
  14 C14           -4.6960     4.8329    -0.6776 C.2     
  15 O15           -5.3050     3.7849    -0.6342 O.2     
  16 N16           -2.8062     3.4763    -1.3687 N.am    
  17 C17           -3.2441     4.8445    -1.0813 C.3     
  18 C18           -3.0693     5.7091    -2.3315 C.3     
  19 C19           -1.6026     5.8355    -2.6537 C.ar    
  20 C20           -1.0255     4.9925    -3.5855 C.ar    
  21 C21            0.3189     5.1061    -3.8823 C.ar    
  22 C22            1.0900     6.0672    -3.2449 C.ar    
  23 O23            2.4126     6.1812    -3.5355 O.3     
  24 C24            0.5085     6.9121    -2.3107 C.ar    
  25 C25           -0.8375     6.7979    -2.0212 C.ar    
  26 C26           -7.3431     7.3203    -0.2665 C.2     
  27 O27           -6.6681     8.2012    -0.7557 O.2     
  28 N28           -5.3177     5.9870    -0.3649 N.am    
  29 C29           -6.7292     5.9758     0.0276 C.3     
  30 C30           -6.8398     5.6810     1.5248 C.3     
  31 C31           -6.3381     4.2870     1.8008 C.ar    
  32 C32           -5.0034     4.0782     2.0938 C.ar    
  33 C33           -4.5432     2.7995     2.3470 C.ar    
  34 C34           -5.4178     1.7297     2.3075 C.ar    
  35 C35           -6.7527     1.9387     2.0154 C.ar    
  36 C36           -7.2138     3.2179     1.7666 C.ar    
  37 C37          -10.4227     9.0715     0.6345 C.2     
  38 O38          -10.7369     8.2208     1.4398 O.2     
  39 N39           -8.6422     7.5438     0.0142 N.am    
  40 C40           -9.2390     8.8508    -0.2716 C.3     
  41 C41           -9.6984     8.8937    -1.7304 C.3     
  42 C42           -8.4808     8.7945    -2.6516 C.3     
  43 C43           -8.9402     8.8373    -4.1104 C.3     
  44 N44           -7.7744     8.7423    -4.9925 N.pl3   
  45 C45           -7.9416     8.7604    -6.3570 C.2     
  46 N46           -6.9043     8.6759    -7.1418 N.2     
  47 N47           -9.2027     8.8677    -6.8937 N.pl3   
  48 C48          -13.2362    11.4007     0.7844 C.2     
  49 O49          -12.9796    11.8680    -0.3050 O.2     
  50 N50          -11.1323    10.2143     0.5500 N.am    
  51 C51          -12.2830    10.4288     1.4309 C.3     
  52 C52          -11.8030    10.9980     2.7675 C.3     
  53 C53          -10.9348     9.9601     3.4815 C.3     
  54 C54          -10.4548    10.5292     4.8181 C.3     
  55 N55           -9.6234     9.5354     5.5017 N.pl3   
  56 C56           -9.0760     9.8245     6.7293 C.2     
  57 N57           -9.2967    10.9827     7.2849 N.2     
  58 N58           -8.2958     8.8918     7.3708 N.pl3   
  59 C59          -16.2325    13.2698     1.7719 C.2     
  60 O60          -16.2612    12.8464     2.9081 O.2     
  61 N61          -14.3739    11.7504     1.4167 N.am    
  62 C62          -15.3524    12.6079     0.7432 C.3     
  63 C63          -16.2135    11.7597    -0.1949 C.3     
  64 C64          -17.2392    12.6543    -0.8939 C.3     
  65 C65          -16.5139    13.6449    -1.8069 C.3     
  66 C66          -18.1851    11.7892    -1.7293 C.3     
  67 C67          -19.0134    15.6414     1.6981 C.2     
  68 O68          -19.0584    15.6366     0.4861 O.2     
  69 N69          -16.9878    14.3321     1.4294 N.am    
  70 C70          -17.8884    14.9384     2.4131 C.3     
  71 C71          -17.1124    15.9487     3.2604 C.3     
  72 C72          -16.0658    15.2269     4.0696 C.2     
  73 C73          -14.7467    15.4977     4.0789 C.2     
  74 N74          -14.1664    14.6109     4.9452 N.pl3   
  75 C75          -15.1518    13.8285     5.4355 C.2     
  76 N76          -16.2857    14.2059     4.9112 N.2     
  77 C77          -21.6131    18.0511     2.5910 C.2     
  78 O78          -21.1385    18.2400     3.6910 O.2     
  79 N79          -19.9694    16.2756     2.4054 N.am    
  80 C80          -21.0630    16.9590     1.7103 C.3     
  81 C81          -22.1716    15.9539     1.3914 C.3     
  82 O82          -22.7414    15.4708     2.6096 O.3     
  83 C83          -24.5969    20.1628     2.6280 C.2     
  84 O84          -25.1131    19.5489     1.7183 O.2     
  85 N85          -22.6327    18.8180     2.1563 N.am    
  86 C86          -23.1675    19.8797     3.0124 C.3     
  87 C87          -22.3307    21.1482     2.8347 C.3     
  88 C88          -20.8763    20.8564     3.2093 C.3     
  89 O89          -22.3954    21.5746     1.4724 O.3     
  90 C90          -26.9887    22.8425     3.3074 C.2     
  91 O91          -26.1720    23.4900     3.9276 O.2     
  92 N92          -25.3014    21.0983     3.2950 N.am    
  93 C93          -26.6577    21.4418     2.8606 C.3     
  94 C94          -27.6553    20.4602     3.4788 C.3     
  95 C95          -27.3973    19.0563     2.9281 C.3     
  96 C96          -28.3948    18.0746     3.5463 C.3     
  97 N97          -28.1478    16.7303     3.0190 N.pl3   
  98 C98          -28.9262    15.6756     3.4333 C.2     
  99 N99          -29.8840    15.8717     4.2954 N.2     
 100 N100         -28.6944    14.4141     2.9385 N.pl3   
 101 C101         -29.0376    24.5497     4.9660 C.2     
 102 O102         -29.0736    23.4549     5.4866 O.2     
 103 N103         -28.1922    23.3756     3.0177 N.am    
 104 C104         -28.5559    24.6930     3.5453 C.3     
 105 C105         -29.6699    25.2961     2.6874 C.3     
 106 C106         -29.1541    25.5389     1.2924 C.2     
 107 O107         -28.0374    25.1774     0.9873 O.2     
 108 N108         -29.9339    26.1578     0.3838 N.am    
 109 C109         -31.3629    25.1503     7.0397 C.2     
 110 O110         -31.9558    25.0305     5.9938 O.2     
 111 N111         -29.4285    25.6382     5.6581 N.am    
 112 C112         -29.8968    25.4989     7.0392 C.3     
 113 C113         -29.6860    26.8182     7.7847 C.3     
 114 C114         -28.2104    27.1049     7.8911 C.ar    
 115 C115         -27.5750    27.8301     6.9001 C.ar    
 116 C116         -26.2223    28.0938     6.9951 C.ar    
 117 C117         -25.5014    27.6307     8.0862 C.ar    
 118 O118         -24.1706    27.8892     8.1822 O.3     
 119 C119         -26.1413    26.9036     9.0794 C.ar    
 120 C120         -27.4953    26.6470     8.9823 C.ar    
 121 O121         -32.0102    24.9728     8.2022 O.3     
 122 C122           3.6501    -1.7302     0.0315 C.2     
 123 O123           4.1863    -1.0399     0.8723 O.2     
 124 C124          13.4125   -16.1785     6.8969 C.3     
 125 C125          13.0863   -14.6861     6.9831 C.3     
 126 C126          12.0638   -14.3244     5.9040 C.3     
 127 C127          11.7376   -12.8321     5.9902 C.3     
 128 C128          10.7150   -12.4704     4.9111 C.3     
 129 C129          10.3889   -10.9780     4.9973 C.3     
 130 C130           9.3663   -10.6163     3.9182 C.3     
 131 C131           9.0401    -9.1240     4.0044 C.3     
 132 C132           8.0176    -8.7623     2.9253 C.3     
 133 C133           7.6914    -7.2699     3.0115 C.3     
 134 C134           6.6688    -6.9082     1.9324 C.3     
 135 C135           6.3427    -5.4159     2.0186 C.3     
 136 C136           5.3201    -5.0542     0.9395 C.3     
 137 C137           4.9939    -3.5618     1.0257 C.3     
 138 C138           3.9714    -3.2001    -0.0534 C.3     
 139 H139           2.3932    -1.7174    -1.5448 H       
 140 H140           2.4039     0.4947     0.3785 H       
 141 H141           4.3555     0.9267    -1.1284 H       
 142 H142           3.2553     0.8780    -2.5268 H       
 143 H143           1.9290     2.7413    -1.4866 H       
 144 H144           2.8893     3.9623     0.4148 H       
 145 H145           2.6325     2.2604     0.8686 H       
 146 H146           4.2683     2.8382     0.4705 H       
 147 H147           3.6507     3.2492    -3.1671 H       
 148 H148           3.6434     4.5116    -1.9123 H       
 149 H149           4.9072     3.2582    -1.9065 H       
 150 H150           0.6065     2.1012    -0.1720 H       
 151 H151          -1.0301     1.6257    -2.4796 H       
 152 H152          -2.1064     0.7227     0.2303 H       
 153 H153          -3.0429     0.8133    -1.2807 H       
 154 H154          -1.7004    -0.3462    -1.1338 H       
 155 H155          -3.4053     2.8595    -1.8177 H       
 156 H156          -2.6444     5.2549    -0.2690 H       
 157 H157          -3.5868     5.2437    -3.1704 H       
 158 H158          -3.4881     6.6989    -2.1501 H       
 159 H159          -1.6262     4.2444    -4.0814 H       
 160 H160           0.7693     4.4469    -4.6096 H       
 161 H161           2.6049     6.7919    -4.2602 H       
 162 H162           1.1067     7.6609    -1.8129 H       
 163 H163          -1.2916     7.4583    -1.2973 H       
 164 H164          -4.8307     6.8252    -0.3996 H       
 165 H165          -7.2564     5.2049    -0.5344 H       
 166 H166          -6.2395     6.4002     2.0821 H       
 167 H167          -7.8819     5.7601     1.8347 H       
 168 H168          -4.3201     4.9140     2.1246 H       
 169 H169          -3.5003     2.6363     2.5752 H       
 170 H170          -5.0581     0.7307     2.5046 H       
 171 H171          -7.4359     1.1029     1.9843 H       
 172 H172          -8.2574     3.3816     1.5420 H       
 173 H173          -9.1820     6.8392     0.4055 H       
 174 H174          -8.4995     9.6331    -0.1004 H       
 175 H175         -10.3700     8.0574    -1.9245 H       
 176 H176         -10.2214     9.8312    -1.9192 H       
 177 H177          -7.8092     9.6307    -2.4575 H       
 178 H178          -7.9578     7.8570    -2.4628 H       
 179 H179          -9.6118     8.0011    -4.3045 H       
 180 H180          -9.4633     9.7748    -4.2992 H       
 181 H181          -6.8846     8.6667    -4.6138 H       
 182 H182          -7.0222     8.6887    -8.1045 H       
 183 H183          -9.9746     8.9306    -6.3097 H       
 184 H184          -9.3207     8.8804    -7.8564 H       
 185 H185         -10.8810    10.8947    -0.0940 H       
 186 H186         -12.7917     9.4801     1.6017 H       
 187 H187         -11.2181    11.9003     2.5891 H       
 188 H188         -12.6646    11.2406     3.3895 H       
 189 H189         -11.5197     9.0578     3.6598 H       
 190 H190         -10.0732     9.7174     2.8595 H       
 191 H191          -9.8698    11.4315     4.6397 H       
 192 H192         -11.3164    10.7719     5.4401 H       
 193 H193          -9.4591     8.6735     5.0882 H       
 194 H194          -8.9105    11.1866     8.1510 H       
 195 H195          -8.1315     8.0299     6.9573 H       
 196 H196          -7.9095     9.0957     8.2369 H       
 197 H197         -14.5449    11.4344     2.3177 H       
 198 H198         -14.8303    13.3713     0.1664 H       
 199 H199         -15.5774    11.2843    -0.9416 H       
 200 H200         -16.7323    10.9937     0.3813 H       
 201 H201         -17.8129    13.2021    -0.1463 H       
 202 H202         -15.8609    13.0998    -2.4884 H       
 203 H203         -17.2459    14.2127    -2.3812 H       
 204 H204         -15.9182    14.3280    -1.2013 H       
 205 H205         -18.7018    11.0835    -1.0789 H       
 206 H206         -18.9159    12.4265    -2.2273 H       
 207 H207         -17.6115    11.2414    -2.4769 H       
 208 H208         -16.9351    14.6954     0.5315 H       
 209 H209         -18.2976    14.1612     3.0585 H       
 210 H210         -16.6293    16.6756     2.6074 H       
 211 H211         -17.7995    16.4636     3.9318 H       
 212 H212         -14.2433    16.2665     3.5115 H       
 213 H213         -13.2235    14.5549     5.1657 H       
 214 H214         -15.0234    13.0260     6.1468 H       
 215 H215         -19.9333    16.2794     3.3747 H       
 216 H216         -20.6889    17.3936     0.7833 H       
 217 H217         -22.9443    16.4417     0.7972 H       
 218 H218         -21.7541    15.1187     0.8292 H       
 219 H219         -23.4526    14.8279     2.4833 H       
 220 H220         -23.0123    18.6669     1.2765 H       
 221 H221         -23.1277    19.5611     4.0541 H       
 222 H222         -22.7215    21.9346     3.4805 H       
 223 H223         -20.4573    20.1369     2.5058 H       
 224 H224         -20.2990    21.7802     3.1713 H       
 225 H225         -20.8364    20.4442     4.2175 H       
 226 H226         -23.2898    21.7775     1.1658 H       
 227 H227         -24.9105    21.5441     4.0627 H       
 228 H228         -26.7168    21.3837     1.7737 H       
 229 H229         -27.5345    20.4534     4.5621 H       
 230 H230         -28.6705    20.7678     3.2283 H       
 231 H231         -27.5180    19.0630     1.8448 H       
 232 H232         -26.3820    18.7486     3.1785 H       
 233 H233         -28.2740    18.0678     4.6296 H       
 234 H234         -29.4101    18.3823     3.2958 H       
 235 H235         -27.4350    16.5844     2.3774 H       
 236 H236         -30.4332    15.1275     4.5877 H       
 237 H237         -27.9816    14.2681     2.2969 H       
 238 H238         -29.2436    13.6699     3.2308 H       
 239 H239         -28.8175    22.8870     2.4600 H       
 240 H240         -27.6844    25.3472     3.5214 H       
 241 H241         -30.5125    24.6057     2.6482 H       
 242 H242         -29.9942    26.2406     3.1244 H       
 243 H243         -30.8270    26.4469     0.6278 H       
 244 H244         -29.6018    26.3141    -0.5141 H       
 245 H245         -29.3997    26.5138     5.2417 H       
 246 H246         -29.3350    24.7074     7.5353 H       
 247 H247         -30.1746    27.6257     7.2395 H       
 248 H248         -30.1146    26.7433     8.7841 H       
 249 H249         -28.1366    28.1904     6.0509 H       
 250 H250         -25.7263    28.6598     6.2204 H       
 251 H251         -23.9623    28.7126     8.6444 H       
 252 H252         -25.5823    26.5417     9.9296 H       
 253 H253         -27.9948    26.0848     9.7574 H       
 254 H254         -32.9499    24.7504     8.1519 H       
 255 H255          13.8264   -16.4038     5.9140 H       
 256 H256          14.1410   -16.4361     7.6656 H       
 257 H257          12.5025   -16.7587     7.0496 H       
 258 H258          12.6725   -14.4608     7.9659 H       
 259 H259          13.9964   -14.1059     6.8303 H       
 260 H260          12.4776   -14.5497     4.9211 H       
 261 H261          11.1537   -14.9046     6.0567 H       
 262 H262          11.3237   -12.6068     6.9731 H       
 263 H263          12.6476   -12.2519     5.8374 H       
 264 H264          11.1289   -12.6957     3.9282 H       
 265 H265           9.8050   -13.0506     5.0638 H       
 266 H266           9.9750   -10.7527     5.9802 H       
 267 H267          11.2989   -10.3978     4.8445 H       
 268 H268           9.7802   -10.8416     2.9353 H       
 269 H269           8.4563   -11.1965     4.0709 H       
 270 H270           8.6263    -8.8987     4.9873 H       
 271 H271           9.9502    -8.5438     3.8516 H       
 272 H272           8.4314    -8.9876     1.9424 H       
 273 H273           7.1075    -9.3425     3.0781 H       
 274 H274           7.2775    -7.0446     3.9944 H       
 275 H275           8.6014    -6.6897     2.8588 H       
 276 H276           7.0827    -7.1335     0.9495 H       
 277 H277           5.7588    -7.4884     2.0852 H       
 278 H278           5.9288    -5.1906     3.0015 H       
 279 H279           7.2527    -4.8357     1.8659 H       
 280 H280           5.7340    -5.2795    -0.0434 H       
 281 H281           4.4101    -5.6344     1.0923 H       
 282 H282           4.5801    -3.3366     2.0086 H       
 283 H283           5.9040    -2.9816     0.8730 H       
 284 H284           3.0613    -3.7804     0.0994 H       
 285 H285           4.3852    -3.4254    -1.0362 H       
@<TRIPOS>BOND
   1    1    2 2
   2    1    4 1
   3    1   11 am
   4    3  122 am
   5    3    4 1
   6    3  139 1
   7    4    5 1
   8    4  140 1
   9    5    6 1
  10    5  141 1
  11    5  142 1
  12    6    7 1
  13    6    8 1
  14    6  143 1
  15    7  144 1
  16    7  145 1
  17    7  146 1
  18    8  147 1
  19    8  148 1
  20    8  149 1
  21    9   10 2
  22    9   12 1
  23    9   16 am
  24   11   12 1
  25   11  150 1
  26   12   13 1
  27   12  151 1
  28   13  152 1
  29   13  153 1
  30   13  154 1
  31   14   15 2
  32   14   17 1
  33   14   28 am
  34   16   17 1
  35   16  155 1
  36   17   18 1
  37   17  156 1
  38   18   19 1
  39   18  157 1
  40   18  158 1
  41   19   20 ar
  42   19   25 ar
  43   20   21 ar
  44   20  159 1
  45   21   22 ar
  46   21  160 1
  47   22   23 1
  48   22   24 ar
  49   23  161 1
  50   24   25 ar
  51   24  162 1
  52   25  163 1
  53   26   27 2
  54   26   29 1
  55   26   39 am
  56   28   29 1
  57   28  164 1
  58   29   30 1
  59   29  165 1
  60   30   31 1
  61   30  166 1
  62   30  167 1
  63   31   32 ar
  64   31   36 ar
  65   32   33 ar
  66   32  168 1
  67   33   34 ar
  68   33  169 1
  69   34   35 ar
  70   34  170 1
  71   35   36 ar
  72   35  171 1
  73   36  172 1
  74   37   38 2
  75   37   40 1
  76   37   50 am
  77   39   40 1
  78   39  173 1
  79   40   41 1
  80   40  174 1
  81   41   42 1
  82   41  175 1
  83   41  176 1
  84   42   43 1
  85   42  177 1
  86   42  178 1
  87   43   44 1
  88   43  179 1
  89   43  180 1
  90   44   45 1
  91   44  181 1
  92   45   46 2
  93   45   47 1
  94   46  182 1
  95   47  183 1
  96   47  184 1
  97   48   49 2
  98   48   51 1
  99   48   61 am
 100   50   51 1
 101   50  185 1
 102   51   52 1
 103   51  186 1
 104   52   53 1
 105   52  187 1
 106   52  188 1
 107   53   54 1
 108   53  189 1
 109   53  190 1
 110   54   55 1
 111   54  191 1
 112   54  192 1
 113   55   56 1
 114   55  193 1
 115   56   57 2
 116   56   58 1
 117   57  194 1
 118   58  195 1
 119   58  196 1
 120   59   60 2
 121   59   62 1
 122   59   69 am
 123   61   62 1
 124   61  197 1
 125   62   63 1
 126   62  198 1
 127   63   64 1
 128   63  199 1
 129   63  200 1
 130   64   65 1
 131   64   66 1
 132   64  201 1
 133   65  202 1
 134   65  203 1
 135   65  204 1
 136   66  205 1
 137   66  206 1
 138   66  207 1
 139   67   68 2
 140   67   70 1
 141   67   79 am
 142   69   70 1
 143   69  208 1
 144   70   71 1
 145   70  209 1
 146   71   72 1
 147   71  210 1
 148   71  211 1
 149   72   73 2
 150   72   76 1
 151   73   74 1
 152   73  212 1
 153   74   75 1
 154   74  213 1
 155   75   76 2
 156   75  214 1
 157   77   78 2
 158   77   80 1
 159   77   85 am
 160   79   80 1
 161   79  215 1
 162   80   81 1
 163   80  216 1
 164   81   82 1
 165   81  217 1
 166   81  218 1
 167   82  219 1
 168   83   84 2
 169   83   86 1
 170   83   92 am
 171   85   86 1
 172   85  220 1
 173   86   87 1
 174   86  221 1
 175   87   88 1
 176   87   89 1
 177   87  222 1
 178   88  223 1
 179   88  224 1
 180   88  225 1
 181   89  226 1
 182   90   91 2
 183   90   93 1
 184   90  103 am
 185   92   93 1
 186   92  227 1
 187   93   94 1
 188   93  228 1
 189   94   95 1
 190   94  229 1
 191   94  230 1
 192   95   96 1
 193   95  231 1
 194   95  232 1
 195   96   97 1
 196   96  233 1
 197   96  234 1
 198   97   98 1
 199   97  235 1
 200   98   99 2
 201   98  100 1
 202   99  236 1
 203  100  237 1
 204  100  238 1
 205  101  102 2
 206  101  104 1
 207  101  111 am
 208  103  104 1
 209  103  239 1
 210  104  105 1
 211  104  240 1
 212  105  106 1
 213  105  241 1
 214  105  242 1
 215  106  107 2
 216  106  108 am
 217  108  243 1
 218  108  244 1
 219  109  110 2
 220  109  112 1
 221  109  121 1
 222  111  112 1
 223  111  245 1
 224  112  113 1
 225  112  246 1
 226  113  114 1
 227  113  247 1
 228  113  248 1
 229  114  115 ar
 230  114  120 ar
 231  115  116 ar
 232  115  249 1
 233  116  117 ar
 234  116  250 1
 235  117  118 1
 236  117  119 ar
 237  118  251 1
 238  119  120 ar
 239  119  252 1
 240  120  253 1
 241  121  254 1
 242  122  123 2
 243  122  138 1
 244  124  125 1
 245  124  255 1
 246  124  256 1
 247  124  257 1
 248  125  126 1
 249  125  258 1
 250  125  259 1
 251  126  127 1
 252  126  260 1
 253  126  261 1
 254  127  128 1
 255  127  262 1
 256  127  263 1
 257  128  129 1
 258  128  264 1
 259  128  265 1
 260  129  130 1
 261  129  266 1
 262  129  267 1
 263  130  131 1
 264  130  268 1
 265  130  269 1
 266  131  132 1
 267  131  270 1
 268  131  271 1
 269  132  133 1
 270  132  272 1
 271  132  273 1
 272  133  134 1
 273  133  274 1
 274  133  275 1
 275  134  135 1
 276  134  276 1
 277  134  277 1
 278  135  136 1
 279  135  278 1
 280  135  279 1
 281  136  137 1
 282  136  280 1
 283  136  281 1
 284  137  138 1
 285  137  282 1
 286  137  283 1
 287  138  284 1
 288  138  285 1

#	End of record

