#	Name: ASD09890014
#	Creating user name:	WinNT
#	Creation time:	15. 06. 2019 21:24

#	Modifying user name:	WinNT
#	Modification time:	15. 06. 2019 21:24

#	Program:	/corina/corina34_cracker 3.40 0067  02.08.2006

@<TRIPOS>MOLECULE
ASD09890014
  54   58    0    0    0
SMALL
NO_CHARGES


@<TRIPOS>ATOM
   1 C1            -0.0187     1.5261     0.0104 C.3     
   2 C2             0.0021    -0.0041     0.0020 C.3     
   3 O3             0.9062    -0.4537     1.0175 O.3     
   4 C4             2.2759    -0.1968     0.7049 C.3     
   5 C5             2.4592     1.2471     0.3270 C.ar    
   6 C6             1.3923     2.0522    -0.0002 C.ar    
   7 N7             1.6138     3.3185    -0.3308 N.ar    
   8 C8             3.7444     1.7964     0.3033 C.ar    
   9 N9             3.8930     3.0729    -0.0358 N.ar    
  10 C10            2.8411     3.8131    -0.3471 C.ar    
  11 N11            3.0304     5.1458    -0.7001 N.pl3   
  12 C12            4.0051     7.1136    -1.1516 C.ar    
  13 C13            2.5584     7.2251    -1.3220 C.2     
  14 C14            2.0328     6.0209    -1.0370 C.2     
  15 C15            5.0801     8.0136    -1.2964 C.ar    
  16 C16            4.2525     5.7869    -0.7578 C.ar    
  17 C17            5.5574     5.3764    -0.5145 C.ar    
  18 C18            6.6046     6.2646    -0.6578 C.ar    
  19 C19            6.3774     7.5728    -1.0445 C.ar    
  20 C20            0.5646     5.6843    -1.0825 C.3     
  21 C21            4.8337     9.4083    -1.7044 C.2     
  22 N22            5.8667    10.2631    -1.8407 N.am    
  23 O23            3.6982     9.7878    -1.9180 O.2     
  24 N24            4.8463     1.0223     0.6286 N.pl3   
  25 C25            6.1882     1.6094     0.6001 C.3     
  26 C26            7.2018     0.5653     0.9916 C.ar    
  27 C27            7.7818    -0.2324     0.0229 C.ar    
  28 C28            8.7115    -1.1903     0.3821 C.ar    
  29 C29            9.0617    -1.3501     1.7097 C.ar    
  30 C30            8.4824    -0.5518     2.6783 C.ar    
  31 C31            7.5559     0.4090     2.3186 C.ar    
  32 H32           -0.5469     1.8865    -0.8723 H       
  33 H33           -0.5299     1.8770     0.9069 H       
  34 H34           -0.9983    -0.3848     0.2080 H       
  35 H35            0.3388    -0.3602    -0.9716 H       
  36 H36            2.8935    -0.4240     1.5738 H       
  37 H37            2.5812    -0.8299    -0.1282 H       
  38 H38            2.0136     8.1087    -1.6202 H       
  39 H39            5.7533     4.3584    -0.2117 H       
  40 H40            7.6144     5.9336    -0.4650 H       
  41 H41            7.2081     8.2544    -1.1525 H       
  42 H42            0.1174     5.8765    -0.1072 H       
  43 H43            0.0736     6.3010    -1.8353 H       
  44 H44            0.4408     4.6319    -1.3378 H       
  45 H45            6.7724     9.9604    -1.6703 H       
  46 H46            5.7046    11.1810    -2.1092 H       
  47 H47            4.7293     0.0915     0.8753 H       
  48 H48            6.4064     1.9685    -0.4057 H       
  49 H49            6.2353     2.4425     1.3014 H       
  50 H50            7.5082    -0.1076    -1.0143 H       
  51 H51            9.1641    -1.8140    -0.3746 H       
  52 H52            9.7875    -2.0990     1.9904 H       
  53 H53            8.7557    -0.6769     3.7156 H       
  54 H54            7.1060     1.0352     3.0749 H       
@<TRIPOS>BOND
   1    1    2 1
   2    1    6 1
   3    1   32 1
   4    1   33 1
   5    2    3 1
   6    2   34 1
   7    2   35 1
   8    3    4 1
   9    4    5 1
  10    4   36 1
  11    4   37 1
  12    5    8 ar
  13    5    6 ar
  14    6    7 ar
  15    7   10 ar
  16    8    9 ar
  17    8   24 1
  18    9   10 ar
  19   10   11 1
  20   11   16 1
  21   11   14 1
  22   12   13 1
  23   12   16 ar
  24   12   15 ar
  25   13   14 2
  26   13   38 1
  27   14   20 1
  28   15   19 ar
  29   15   21 1
  30   16   17 ar
  31   17   18 ar
  32   17   39 1
  33   18   19 ar
  34   18   40 1
  35   19   41 1
  36   20   42 1
  37   20   43 1
  38   20   44 1
  39   21   22 am
  40   21   23 2
  41   22   45 1
  42   22   46 1
  43   24   25 1
  44   24   47 1
  45   25   26 1
  46   25   48 1
  47   25   49 1
  48   26   27 ar
  49   26   31 ar
  50   27   28 ar
  51   27   50 1
  52   28   29 ar
  53   28   51 1
  54   29   30 ar
  55   29   52 1
  56   30   31 ar
  57   30   53 1
  58   31   54 1

#	End of record

