#	Name: ASD01880898
#	Creating user name:	WinNT
#	Creation time:	15. 06. 2019 19:41

#	Modifying user name:	WinNT
#	Modification time:	15. 06. 2019 19:41

#	Program:	/corina/corina34_cracker 3.40 0067  02.08.2006

@<TRIPOS>MOLECULE
ASD01880898
  46   48    0    0    0
SMALL
NO_CHARGES


@<TRIPOS>ATOM
   1 N1            -0.0158     1.3132     0.0093 N.ar    
   2 C2             0.0021    -0.0041     0.0020 C.ar    
   3 N3             1.1304    -0.6846    -0.0120 N.ar    
   4 C4             2.3038    -0.0595    -0.0198 C.ar    
   5 C5             2.3282     1.3306    -0.0130 C.ar    
   6 C6             1.1163     2.0109     0.0022 C.ar    
   7 C7             3.6353     2.0806    -0.0210 C.3     
   8 O8             4.0364     2.3244    -1.3707 O.3     
   9 C9             5.2017     2.9948    -1.5556 C.ar    
  10 C10            5.6509     3.2657    -2.8445 C.ar    
  11 C11            6.8296     3.9443    -3.0301 C.ar    
  12 C12            7.5841     4.3665    -1.9304 C.ar    
  13 C13            7.1282     4.0922    -0.6381 C.ar    
  14 C14            5.9425     3.4153    -0.4575 C.ar    
  15 C15            7.5828     4.3891    -4.2591 C.3     
  16 N16            8.7864     5.0753    -3.7760 N.am    
  17 C17            8.7832     5.0600    -2.4320 C.2     
  18 O18            9.6469     5.5493    -1.7300 O.2     
  19 C19            7.9307     4.5404     0.5562 C.3     
  20 C20            9.4639     7.1383    -4.9014 C.3     
  21 C21            9.8216     5.6776    -4.6197 C.3     
  22 O22            1.0887     3.3660     0.0093 O.3     
  23 C23           -0.1974     3.9886     0.0250 C.3     
  24 F24           -0.8934     3.5924     1.1721 F       
  25 F25           -0.0424     5.3790     0.0305 F       
  26 F26           -0.9156     3.6040    -1.1123 F       
  27 O27            3.4596    -0.7672    -0.0338 O.3     
  28 C28            3.3480    -2.1919    -0.0394 C.3     
  29 H29           -0.9347    -0.5415     0.0081 H       
  30 H30            3.5122     3.0307     0.4988 H       
  31 H31            4.3979     1.4869     0.4830 H       
  32 H32            5.0731     2.9421    -3.6976 H       
  33 H33            5.5906     3.2040     0.5415 H       
  34 H34            7.8609     3.5243    -4.8615 H       
  35 H35            6.9710     5.0742    -4.8460 H       
  36 H36            7.6131     5.5400     0.8530 H       
  37 H37            7.7702     3.8478     1.3824 H       
  38 H38            8.9893     4.5575     0.2969 H       
  39 H39            8.5038     7.1846    -5.4153 H       
  40 H40            9.3989     7.6845    -3.9603 H       
  41 H41           10.2341     7.5865    -5.5291 H       
  42 H42           10.7817     5.6313    -4.1057 H       
  43 H43            9.8865     5.1315    -5.5607 H       
  44 H44            4.3441    -2.6343    -0.0507 H       
  45 H45            2.8155    -2.5181     0.8539 H       
  46 H46            2.7992    -2.5098    -0.9259 H       
@<TRIPOS>BOND
   1    1    2 ar
   2    1    6 ar
   3    2    3 ar
   4    2   29 1
   5    3    4 ar
   6    4    5 ar
   7    4   27 1
   8    5    6 ar
   9    5    7 1
  10    6   22 1
  11    7    8 1
  12    7   30 1
  13    7   31 1
  14    8    9 1
  15    9   10 ar
  16    9   14 ar
  17   10   11 ar
  18   10   32 1
  19   11   12 ar
  20   11   15 1
  21   12   13 ar
  22   12   17 1
  23   13   14 ar
  24   13   19 1
  25   14   33 1
  26   15   16 1
  27   15   34 1
  28   15   35 1
  29   16   17 am
  30   16   21 1
  31   17   18 2
  32   19   36 1
  33   19   37 1
  34   19   38 1
  35   20   21 1
  36   20   39 1
  37   20   40 1
  38   20   41 1
  39   21   42 1
  40   21   43 1
  41   22   23 1
  42   23   24 1
  43   23   25 1
  44   23   26 1
  45   27   28 1
  46   28   44 1
  47   28   45 1
  48   28   46 1

#	End of record

