#	Name: ASD01150082
#	Creating user name:	WinNT
#	Creation time:	15. 06. 2019 19:03

#	Modifying user name:	WinNT
#	Modification time:	15. 06. 2019 19:03

#	Program:	/corina/corina34_cracker 3.40 0067  02.08.2006

@<TRIPOS>MOLECULE
ASD01150082
  50   53    0    0    0
SMALL
NO_CHARGES


@<TRIPOS>ATOM
   1 N1            -0.1499     1.3024     0.0221 N.am    
   2 C2            -0.0705    -0.0392    -0.0041 C.2     
   3 N3             1.1151    -0.6769     0.0191 N.am    
   4 C4             2.2934     0.0501     0.0717 C.2     
   5 C5             2.2232     1.4387     0.0992 C.2     
   6 C6             0.9630     2.0633     0.0729 C.2     
   7 N7             3.5841    -0.2881     0.1043 N.2     
   8 C8             4.3312     0.7936     0.1505 C.2     
   9 N9             3.5334     1.8947     0.1494 N.pl3   
  10 O10            0.8775     3.2787     0.0959 O.2     
  11 O11           -1.0947    -0.6931    -0.0495 O.2     
  12 C12            3.9529     3.2319     0.1905 C.ar    
  13 O13            5.6823     0.8083     0.1925 O.3     
  14 C14            6.3418    -0.4551     0.2970 C.3     
  15 C15            4.6789     3.7653    -0.8657 C.ar    
  16 C16            5.0913     5.0828    -0.8234 C.ar    
  17 C17            4.7814     5.8713     0.2720 C.ar    
  18 C18            4.0577     5.3409     1.3267 C.ar    
  19 C19            3.6378     4.0258     1.2850 C.ar    
  20 F20            5.1860     7.1597     0.3118 F       
  21 C21            1.1592    -2.1409    -0.0109 C.3     
  22 C22            1.2842    -2.6686     1.3952 C.ar    
  23 C23            0.1549    -2.7938     2.1915 C.ar    
  24 C24            0.2705    -3.2798     3.4849 C.ar    
  25 C25            1.5146    -3.6394     3.9791 C.ar    
  26 C26            2.6412    -3.5123     3.1786 C.ar    
  27 C27            2.5227    -3.0327     1.8884 C.ar    
  28 O28            1.6312    -4.1156     5.2466 O.3     
  29 C29            2.9436    -4.4666     5.6896 C.3     
  30 O30           -1.0634    -2.4400     1.7043 O.3     
  31 C31           -2.1643    -2.4860     2.6142 C.3     
  32 H32           -1.0203     1.7299     0.0002 H       
  33 H33            7.4200    -0.3085     0.2327 H       
  34 H34            6.0943    -0.9162     1.2532 H       
  35 H35            6.0143    -1.1043    -0.5150 H       
  36 H36            4.9214     3.1504    -1.7198 H       
  37 H37            5.6562     5.4981    -1.6449 H       
  38 H38            3.8175     5.9572     2.1804 H       
  39 H39            3.0731     3.6125     2.1076 H       
  40 H40            0.2435    -2.5228    -0.4623 H       
  41 H41            2.0173    -2.4666    -0.5988 H       
  42 H42           -0.6073    -3.3776     4.1065 H       
  43 H43            3.6109    -3.7920     3.5633 H       
  44 H44            3.4006    -2.9345     1.2670 H       
  45 H45            3.3480    -5.2471     5.0451 H       
  46 H46            3.5886    -3.5890     5.6460 H       
  47 H47            2.8953    -4.8314     6.7156 H       
  48 H48           -2.3382    -3.5171     2.9222 H       
  49 H49           -1.9373    -1.8785     3.4903 H       
  50 H50           -3.0572    -2.0977     2.1243 H       
@<TRIPOS>BOND
   1    1    2 am
   2    1    6 am
   3    1   32 1
   4    2    3 am
   5    2   11 2
   6    3    4 1
   7    3   21 1
   8    4    5 2
   9    4    7 1
  10    5    6 1
  11    5    9 1
  12    6   10 2
  13    7    8 2
  14    8    9 1
  15    8   13 1
  16    9   12 1
  17   12   15 ar
  18   12   19 ar
  19   13   14 1
  20   14   33 1
  21   14   34 1
  22   14   35 1
  23   15   16 ar
  24   15   36 1
  25   16   17 ar
  26   16   37 1
  27   17   18 ar
  28   17   20 1
  29   18   19 ar
  30   18   38 1
  31   19   39 1
  32   21   22 1
  33   21   40 1
  34   21   41 1
  35   22   23 ar
  36   22   27 ar
  37   23   24 ar
  38   23   30 1
  39   24   25 ar
  40   24   42 1
  41   25   26 ar
  42   25   28 1
  43   26   27 ar
  44   26   43 1
  45   27   44 1
  46   28   29 1
  47   29   45 1
  48   29   46 1
  49   29   47 1
  50   30   31 1
  51   31   48 1
  52   31   49 1
  53   31   50 1

#	End of record

