#	Name: ASD02500008
#	Creating user name:	WinNT
#	Creation time:	15. 06. 2019 20:22

#	Modifying user name:	WinNT
#	Modification time:	15. 06. 2019 20:22

#	Program:	/corina/corina34_cracker 3.40 0067  02.08.2006

@<TRIPOS>MOLECULE
ASD02500008
  34   36    0    0    0
SMALL
NO_CHARGES


@<TRIPOS>ATOM
   1 C1             2.7028    -1.0706    -2.4473 C.ar    
   2 C2             2.3876    -0.6204    -3.7170 C.ar    
   3 C3             2.6753     0.6813    -4.0869 C.ar    
   4 C4             3.2790     1.5389    -3.1904 C.ar    
   5 C5             3.5993     1.0910    -1.9087 C.ar    
   6 C6             3.3067    -0.2227    -1.5418 C.ar    
   7 C7             1.7286    -1.5520    -4.7014 C.3     
   8 F8             0.3386    -1.4562    -4.5754 F       
   9 F9             2.1045    -1.1983    -6.0017 F       
  10 F10            2.1310    -2.8663    -4.4408 F       
  11 C11            4.2477     2.0060    -0.9418 C.ar    
  12 N12            5.2725     1.5757    -0.2183 N.ar    
  13 C13            5.8831     2.3538     0.6565 C.ar    
  14 C14            5.4645     3.6808     0.8550 C.ar    
  15 C15            4.3875     4.1732     0.1117 C.ar    
  16 C16            3.7734     3.3225    -0.8059 C.ar    
  17 C17            2.6291     3.7954    -1.6183 C.ar    
  18 C18            6.1320     4.5174     1.8064 C.1     
  19 N19            6.6615     5.1810     2.5612 N.1     
  20 O20            6.9252     1.8673     1.3713 O.3     
  21 N21            1.5139     3.0715    -1.7038 N.ar    
  22 C22            0.4950     3.4902    -2.4251 C.ar    
  23 N23            0.5317     4.6297    -3.0867 N.ar    
  24 C24            1.6045     5.4062    -3.0522 C.ar    
  25 C25            2.6985     5.0124    -2.3041 C.ar    
  26 H26            2.4716    -2.0865    -2.1630 H       
  27 H27            2.4272     1.0267    -5.0797 H       
  28 H28            3.5035     2.5547    -3.4805 H       
  29 H29            3.5523    -0.5752    -0.5509 H       
  30 H30            4.0427     5.1883     0.2423 H       
  31 H31            7.7858     1.9959     0.9494 H       
  32 H32           -0.3962     2.8824    -2.4764 H       
  33 H33            1.6229     6.3375    -3.5988 H       
  34 H34            3.5867     5.6250    -2.2568 H       
@<TRIPOS>BOND
   1    1    2 ar
   2    1    6 ar
   3    1   26 1
   4    2    3 ar
   5    2    7 1
   6    3    4 ar
   7    3   27 1
   8    4    5 ar
   9    4   28 1
  10    5    6 ar
  11    5   11 1
  12    6   29 1
  13    7    8 1
  14    7    9 1
  15    7   10 1
  16   11   12 ar
  17   11   16 ar
  18   12   13 ar
  19   13   14 ar
  20   13   20 1
  21   14   15 ar
  22   14   18 1
  23   15   16 ar
  24   15   30 1
  25   16   17 1
  26   17   21 ar
  27   17   25 ar
  28   18   19 3
  29   20   31 1
  30   21   22 ar
  31   22   23 ar
  32   22   32 1
  33   23   24 ar
  34   24   25 ar
  35   24   33 1
  36   25   34 1

#	End of record

