#	Name: ASD02038857
#	Creating user name:	WinNT
#	Creation time:	15. 06. 2019 20:17

#	Modifying user name:	WinNT
#	Modification time:	15. 06. 2019 20:17

#	Program:	/corina/corina34_cracker 3.40 0067  02.08.2006

@<TRIPOS>MOLECULE
ASD02038857
  51   53    0    0    0
SMALL
NO_CHARGES


@<TRIPOS>ATOM
   1 C1            -1.2802    -0.8496     0.4544 C.2     
   2 C2            -0.0629    -0.0351     0.2959 C.2     
   3 N3             1.1357    -0.6350     0.1542 N.am    
   4 C4             1.2414    -2.0928     0.2533 C.3     
   5 C5             1.2206    -2.6931    -1.1288 C.ar    
   6 C6             2.4071    -3.0157    -1.7600 C.ar    
   7 C7             2.3881    -3.5665    -3.0280 C.ar    
   8 C8             1.1825    -3.7949    -3.6642 C.ar    
   9 C9            -0.0044    -3.4730    -3.0324 C.ar    
  10 C10            0.0145    -2.9265    -1.7630 C.ar    
  11 C11            2.3327     0.1707    -0.0990 C.3     
  12 C12            3.6818    -3.9172    -3.7166 C.3     
  13 C13           -1.3189    -3.7216    -3.7262 C.3     
  14 F14           -1.0823    -4.2787    -4.9876 F       
  15 F15           -2.0892    -4.6056    -2.9630 F       
  16 F16           -2.0053    -2.5114    -3.8723 F       
  17 C17            2.1153     1.0145    -1.3517 C.3     
  18 C18            3.4327     1.6657    -1.7789 C.3     
  19 S19            3.9767     2.8093    -0.4763 S.o2    
  20 C20            3.9798     1.7188     0.9767 C.3     
  21 C21            2.6040     1.0619     1.1095 C.3     
  22 O22           -0.1395     1.1788     0.2929 O.2     
  23 N23           -1.3400    -2.2055     0.4863 N.2     
  24 C24           -2.5806    -2.5687     0.6393 C.2     
  25 N25           -3.3608    -1.4588     0.7108 N.pl3   
  26 C26           -2.5520    -0.3786     0.6016 C.2     
  27 C27           -4.8156    -1.4351     0.8819 C.3     
  28 O28            5.3134     3.2068    -0.7494 O.2     
  29 O29            2.9769     3.8030    -0.2970 O.2     
  30 H30            2.1752    -2.3564     0.7500 H       
  31 H31            0.4013    -2.4796     0.8302 H       
  32 H32            3.3491    -2.8372    -1.2628 H       
  33 H33            1.1676    -4.2244    -4.6550 H       
  34 H34           -0.9127    -2.6751    -1.2695 H       
  35 H35            3.1847    -0.4911    -0.2551 H       
  36 H36            3.9564    -4.9436    -3.4730 H       
  37 H37            3.5571    -3.8207    -4.7951 H       
  38 H38            4.4677    -3.2412    -3.3797 H       
  39 H39            1.7483     0.3784    -2.1572 H       
  40 H40            1.3794     1.7906    -1.1418 H       
  41 H41            4.1892     0.8952    -1.9271 H       
  42 H42            3.2832     2.2156    -2.7080 H       
  43 H43            4.7413     0.9487     0.8532 H       
  44 H44            4.1925     2.3039     1.8714 H       
  45 H45            1.8380     1.8352     1.1679 H       
  46 H46            2.5771     0.4588     2.0170 H       
  47 H47           -2.9329    -3.5878     0.6992 H       
  48 H48           -2.8564     0.6574     0.6201 H       
  49 H49           -5.0561    -1.4100     1.9447 H       
  50 H50           -5.2241    -0.5491     0.3959 H       
  51 H51           -5.2489    -2.3285     0.4323 H       
@<TRIPOS>BOND
   1    1    2 1
   2    1   23 1
   3    1   26 2
   4    2    3 am
   5    2   22 2
   6    3    4 1
   7    3   11 1
   8    4    5 1
   9    4   30 1
  10    4   31 1
  11    5    6 ar
  12    5   10 ar
  13    6    7 ar
  14    6   32 1
  15    7    8 ar
  16    7   12 1
  17    8    9 ar
  18    8   33 1
  19    9   10 ar
  20    9   13 1
  21   10   34 1
  22   11   17 1
  23   11   21 1
  24   11   35 1
  25   12   36 1
  26   12   37 1
  27   12   38 1
  28   13   14 1
  29   13   15 1
  30   13   16 1
  31   17   18 1
  32   17   39 1
  33   17   40 1
  34   18   19 1
  35   18   41 1
  36   18   42 1
  37   19   20 1
  38   19   28 2
  39   19   29 2
  40   20   21 1
  41   20   43 1
  42   20   44 1
  43   21   45 1
  44   21   46 1
  45   23   24 2
  46   24   25 1
  47   24   47 1
  48   25   26 1
  49   25   27 1
  50   26   48 1
  51   27   49 1
  52   27   50 1
  53   27   51 1

#	End of record

