#	Name: ASD00170930
#	Creating user name:	WinNT
#	Creation time:	15. 06. 2019 18:32

#	Modifying user name:	WinNT
#	Modification time:	15. 06. 2019 18:32

#	Program:	/corina/corina34_cracker 3.40 0067  02.08.2006

@<TRIPOS>MOLECULE
ASD00170930
  53   56    0    0    0
SMALL
NO_CHARGES


@<TRIPOS>ATOM
   1 Cl1            9.2442    -3.5620     8.0437 Cl      
   2 C2             3.1022     1.4608    -3.6755 C.ar    
   3 C3             3.1301     0.0773    -3.6915 C.ar    
   4 C4             3.3217    -0.6253    -2.5201 C.ar    
   5 C5             3.4878     0.0623    -1.3167 C.ar    
   6 C6             3.4586     1.4575    -1.3074 C.ar    
   7 C7             3.2661     2.1483    -2.4862 C.ar    
   8 C8             3.6933    -0.6848    -0.0565 C.2     
   9 O9             3.9334    -0.0842     0.9751 O.2     
  10 C10            3.6080    -2.1448    -0.0498 C.2     
  11 C11            4.7517    -3.0164    -0.2184 C.2     
  12 C12            4.4384    -4.3019    -0.1772 C.2     
  13 S13            2.7154    -4.5194     0.0718 S.3     
  14 C14            2.4330    -2.8393     0.1234 C.2     
  15 N15            1.1957    -2.2562     0.3069 N.pl3   
  16 C16            6.1570    -2.5111    -0.4209 C.3     
  17 N17            6.7298    -2.1244     0.8754 N.3     
  18 C18            8.1690    -1.8521     0.7550 C.3     
  19 C19            8.7102    -1.3770     2.1055 C.3     
  20 N20            8.4552    -2.4070     3.1222 N.3     
  21 C21            7.0161    -2.6792     3.2426 C.3     
  22 C22            6.4748    -3.1543     1.8921 C.3     
  23 C23            8.9999    -2.0393     4.3547 C.ar    
  24 C24            8.8679    -2.8798     5.4523 C.ar    
  25 C25            9.4082    -2.5126     6.6706 C.ar    
  26 C26           10.0793    -1.3090     6.7965 C.ar    
  27 C27           10.2119    -0.4705     5.7049 C.ar    
  28 C28            9.6798    -0.8344     4.4837 C.ar    
  29 C29            3.2348     3.6549    -2.4782 C.3     
  30 F30            4.5291     4.1493    -2.6723 F       
  31 F31            2.4029     4.1096    -3.5070 F       
  32 F32            2.7435     4.1047    -1.2480 F       
  33 H33            2.9563     2.0063    -4.5961 H       
  34 H34            3.0011    -0.4534    -4.6232 H       
  35 H35            3.3429    -1.7050    -2.5339 H       
  36 H36            3.5861     1.9953    -0.3796 H       
  37 H37            5.1484    -5.1089    -0.2828 H       
  38 H38            0.3990    -2.8086     0.3380 H       
  39 H39            1.1228    -1.2939     0.4048 H       
  40 H40            6.7653    -3.2980    -0.8667 H       
  41 H41            6.1400    -1.6456    -1.0833 H       
  42 H42            8.6875    -2.7629     0.4554 H       
  43 H43            8.3311    -1.0776     0.0054 H       
  44 H44            9.7832    -1.2022     2.0260 H       
  45 H45            8.2109    -0.4515     2.3921 H       
  46 H46            6.8540    -3.4537     3.9922 H       
  47 H47            6.4976    -1.7685     3.5422 H       
  48 H48            5.4019    -3.3291     1.9716 H       
  49 H49            6.9742    -4.0798     1.6055 H       
  50 H50            8.3436    -3.8188     5.3542 H       
  51 H51           10.5001    -1.0237     7.7494 H       
  52 H52           10.7359     0.4684     5.8065 H       
  53 H53            9.7842    -0.1790     3.6317 H       
@<TRIPOS>BOND
   1    1   25 1
   2    2    3 ar
   3    2    7 ar
   4    2   33 1
   5    3    4 ar
   6    3   34 1
   7    4    5 ar
   8    4   35 1
   9    5    6 ar
  10    5    8 1
  11    6    7 ar
  12    6   36 1
  13    7   29 1
  14    8    9 2
  15    8   10 1
  16   10   11 1
  17   10   14 2
  18   11   12 2
  19   11   16 1
  20   12   13 1
  21   12   37 1
  22   13   14 1
  23   14   15 1
  24   15   38 1
  25   15   39 1
  26   16   17 1
  27   16   40 1
  28   16   41 1
  29   17   18 1
  30   17   22 1
  31   18   19 1
  32   18   42 1
  33   18   43 1
  34   19   20 1
  35   19   44 1
  36   19   45 1
  37   20   21 1
  38   20   23 1
  39   21   22 1
  40   21   46 1
  41   21   47 1
  42   22   48 1
  43   22   49 1
  44   23   24 ar
  45   23   28 ar
  46   24   25 ar
  47   24   50 1
  48   25   26 ar
  49   26   27 ar
  50   26   51 1
  51   27   28 ar
  52   27   52 1
  53   28   53 1
  54   29   30 1
  55   29   31 1
  56   29   32 1

#	End of record

