#	Name: ASD01880304
#	Creating user name:	WinNT
#	Creation time:	15. 06. 2019 19:40

#	Modifying user name:	WinNT
#	Modification time:	15. 06. 2019 19:40

#	Program:	/corina/corina34_cracker 3.40 0067  02.08.2006

@<TRIPOS>MOLECULE
ASD01880304
  42   44    0    0    0
SMALL
NO_CHARGES


@<TRIPOS>ATOM
   1 C1            -0.0162     1.3460     0.0094 C.2     
   2 C2             0.0021    -0.0041     0.0020 C.2     
   3 N3             1.1776    -0.6856    -0.0129 N.am    
   4 C4             2.3567    -0.0365    -0.0202 C.2     
   5 C5             2.3888     1.3628    -0.0130 C.2     
   6 C6             1.1968     2.0631     0.0017 C.2     
   7 O7             3.4008    -0.6699    -0.0328 O.2     
   8 C8             1.1613    -2.1505    -0.0206 C.3     
   9 C9             1.1422    -2.6452    -1.4440 C.ar    
  10 C10            2.3301    -2.8851    -2.1077 C.ar    
  11 C11            2.3121    -3.3397    -3.4157 C.ar    
  12 C12            1.1038    -3.5531    -4.0567 C.ar    
  13 C13           -0.0832    -3.3124    -3.3907 C.ar    
  14 C14           -0.0641    -2.8641    -2.0833 C.ar    
  15 F15            3.4730    -3.5742    -4.0658 F       
  16 O16            1.1951     3.4176     0.0086 O.3     
  17 C17            2.4674     4.0681    -0.0001 C.3     
  18 C18            2.2649     5.5846     0.0094 C.3     
  19 C19            3.6067     6.2706     0.0003 C.ar    
  20 C20            4.2109     6.5912    -1.2009 C.ar    
  21 C21            5.4418     7.2204    -1.2093 C.ar    
  22 C22            6.0682     7.5294    -0.0164 C.ar    
  23 C23            5.4636     7.2095     1.1849 C.ar    
  24 C24            4.2308     6.5842     1.1933 C.ar    
  25 H25           -0.9579     1.8748     0.0168 H       
  26 H26           -0.9300    -0.5496     0.0083 H       
  27 H27            3.3322     1.8885    -0.0188 H       
  28 H28            2.0521    -2.5264     0.4828 H       
  29 H29            0.2723    -2.5067     0.4999 H       
  30 H30            3.2721    -2.7179    -1.6068 H       
  31 H31            1.0886    -3.9073    -5.0769 H       
  32 H32           -1.0260    -3.4789    -3.8905 H       
  33 H33           -0.9921    -2.6766    -1.5635 H       
  34 H34            3.0331     3.7715     0.8832 H       
  35 H35            3.0164     3.7804    -0.8967 H       
  36 H36            1.6992     5.8812    -0.8738 H       
  37 H37            1.7159     5.8722     0.9061 H       
  38 H38            3.7215     6.3498    -2.1329 H       
  39 H39            5.9141     7.4703    -2.1478 H       
  40 H40            7.0301     8.0203    -0.0229 H       
  41 H41            5.9531     7.4506     2.1169 H       
  42 H42            3.7584     6.3344     2.1318 H       
@<TRIPOS>BOND
   1    1    2 2
   2    1    6 1
   3    1   25 1
   4    2    3 1
   5    2   26 1
   6    3    4 am
   7    3    8 1
   8    4    5 1
   9    4    7 2
  10    5    6 2
  11    5   27 1
  12    6   16 1
  13    8    9 1
  14    8   28 1
  15    8   29 1
  16    9   10 ar
  17    9   14 ar
  18   10   11 ar
  19   10   30 1
  20   11   12 ar
  21   11   15 1
  22   12   13 ar
  23   12   31 1
  24   13   14 ar
  25   13   32 1
  26   14   33 1
  27   16   17 1
  28   17   18 1
  29   17   34 1
  30   17   35 1
  31   18   19 1
  32   18   36 1
  33   18   37 1
  34   19   20 ar
  35   19   24 ar
  36   20   21 ar
  37   20   38 1
  38   21   22 ar
  39   21   39 1
  40   22   23 ar
  41   22   40 1
  42   23   24 ar
  43   23   41 1
  44   24   42 1

#	End of record

