#	Name: ASD08150901
#	Creating user name:	WinNT
#	Creation time:	15. 06. 2019 21:16

#	Modifying user name:	WinNT
#	Modification time:	15. 06. 2019 21:16

#	Program:	/corina/corina34_cracker 3.40 0067  02.08.2006

@<TRIPOS>MOLECULE
ASD08150901
  55   59    0    0    0
SMALL
NO_CHARGES


@<TRIPOS>ATOM
   1 C1            -4.1263     1.2461    -3.7674 C.2     
   2 C2            -5.2476     1.1041    -4.7642 C.3     
   3 O3            -3.3970     0.3049    -3.5369 O.2     
   4 N4            -3.9305     2.4207    -3.1363 N.am    
   5 N5            -2.1201     4.7162    -1.3177 N.3     
   6 C6            -3.1607     3.6774    -1.1584 C.3     
   7 C7            -2.8405     2.5588    -2.1672 C.3     
   8 C8            -1.5454     3.0146    -2.8778 C.3     
   9 C9            -0.9311     4.0172    -1.8689 C.3     
  10 N10           -1.2446     3.2126     0.8815 N.ar    
  11 C11           -0.8372     2.4808     1.8899 C.ar    
  12 C12           -0.5319     3.0436     3.1273 C.ar    
  13 C13           -0.6543     4.3913     3.3118 C.ar    
  14 C14           -1.0917     5.1735     2.2261 C.ar    
  15 C15           -1.2404     6.5657     2.3425 C.ar    
  16 C16           -1.6655     7.2952     1.2726 C.ar    
  17 C17           -1.9568     6.6815     0.0581 C.ar    
  18 C18           -1.8236     5.3186    -0.0946 C.ar    
  19 C19           -1.3853     4.5360     0.9958 C.ar    
  20 C20           -2.4250     7.5181    -1.1047 C.3     
  21 C21           -3.9494     7.4395    -1.2084 C.3     
  22 N22           -2.0207     8.9110    -0.8983 N.pl3   
  23 N23           -0.9393    11.7711    -0.5803 N.2     
  24 C24           -0.1118    12.7724    -0.6581 C.2     
  25 N25            1.0473    12.3735    -1.2545 N.pl3   
  26 C26            0.9160    11.0423    -1.5593 C.ar    
  27 N27            1.6932    10.1298    -2.1332 N.ar    
  28 C28            1.2720     8.8925    -2.2900 C.ar    
  29 N29            0.0765     8.4952    -1.8945 N.ar    
  30 C30           -0.7701     9.3368    -1.3101 C.ar    
  31 C31           -0.3656    10.6690    -1.1202 C.ar    
  32 Cl32          -0.8840     7.3554     3.8469 Cl      
  33 H33           -5.2458     0.0930    -5.1714 H       
  34 H34           -6.1999     1.2948    -4.2695 H       
  35 H35           -5.1080     1.8216    -5.5728 H       
  36 H36           -4.5113     3.1747    -3.3236 H       
  37 H37           -3.1366     3.2802    -0.1436 H       
  38 H38           -4.1427     4.0997    -1.3715 H       
  39 H39           -2.6745     1.6158    -1.6464 H       
  40 H40           -0.8757     2.1697    -3.0383 H       
  41 H41           -1.7766     3.5094    -3.8211 H       
  42 H42           -0.2729     4.7210    -2.3783 H       
  43 H43           -0.3951     3.4895    -1.0800 H       
  44 H44           -0.7359     1.4136     1.7581 H       
  45 H45           -0.1991     2.4148     3.9399 H       
  46 H46           -0.4222     4.8444     4.2643 H       
  47 H47           -1.7777     8.3651     1.3687 H       
  48 H48           -1.9784     7.1428    -2.0255 H       
  49 H49           -4.3949     7.7692    -0.2698 H       
  50 H50           -4.2921     8.0826    -2.0189 H       
  51 H51           -4.2473     6.4106    -1.4103 H       
  52 H52           -2.6297     9.5348    -0.4729 H       
  53 H53           -0.3138    13.7723    -0.3031 H       
  54 H54            1.8226    12.9290    -1.4312 H       
  55 H55            1.9287     8.1756    -2.7604 H       
@<TRIPOS>BOND
   1    1    2 1
   2    1    3 2
   3    1    4 am
   4    2   33 1
   5    2   34 1
   6    2   35 1
   7    4    7 1
   8    4   36 1
   9    5    6 1
  10    5    9 1
  11    5   18 1
  12    6    7 1
  13    6   37 1
  14    6   38 1
  15    7    8 1
  16    7   39 1
  17    8    9 1
  18    8   40 1
  19    8   41 1
  20    9   42 1
  21    9   43 1
  22   10   11 ar
  23   10   19 ar
  24   11   12 ar
  25   11   44 1
  26   12   13 ar
  27   12   45 1
  28   13   14 ar
  29   13   46 1
  30   14   15 ar
  31   14   19 ar
  32   15   16 ar
  33   15   32 1
  34   16   17 ar
  35   16   47 1
  36   17   18 ar
  37   17   20 1
  38   18   19 ar
  39   20   21 1
  40   20   22 1
  41   20   48 1
  42   21   49 1
  43   21   50 1
  44   21   51 1
  45   22   30 1
  46   22   52 1
  47   23   24 2
  48   23   31 1
  49   24   25 1
  50   24   53 1
  51   25   26 1
  52   25   54 1
  53   26   27 ar
  54   26   31 ar
  55   27   28 ar
  56   28   29 ar
  57   28   55 1
  58   29   30 ar
  59   30   31 ar

#	End of record

