#	Name: ASD01410158
#	Creating user name:	WinNT
#	Creation time:	15. 06. 2019 19:16

#	Modifying user name:	WinNT
#	Modification time:	15. 06. 2019 19:16

#	Program:	/corina/corina34_cracker 3.40 0067  02.08.2006

@<TRIPOS>MOLECULE
ASD01410158
  46   48    0    0    0
SMALL
NO_CHARGES


@<TRIPOS>ATOM
   1 C1            -0.0512     1.4022    -0.1372 C.2     
   2 C2             0.0354     0.0619     0.1756 C.2     
   3 N3            -1.2405    -0.4025     0.2653 N.pl3   
   4 C4            -2.0787     0.6466     0.0095 C.2     
   5 N5            -1.3613     1.7190    -0.2235 N.2     
   6 C6             1.0765     2.3200    -0.3344 C.2     
   7 C7             0.8470     3.6182    -0.6394 C.2     
   8 C8            -1.2036    -2.7066    -0.5541 C.3     
   9 C9            -1.6233    -4.1411    -0.2271 C.3     
  10 C10           -0.9607    -4.5810     1.0799 C.3     
  11 C11           -1.3995    -3.6505     2.2125 C.3     
  12 C12           -0.9798    -2.2160     1.8855 C.3     
  13 C13           -1.6423    -1.7761     0.5784 C.3     
  14 C14           -4.2043    -0.5850    -0.4013 C.ar    
  15 C15           -3.5558     0.5834     0.0023 C.ar    
  16 C16           -4.3055     1.6919     0.3995 C.ar    
  17 C17           -5.6824     1.6290     0.3919 C.ar    
  18 C18           -6.3239     0.4645    -0.0099 C.ar    
  19 C19           -5.5814    -0.6404    -0.4058 C.ar    
  20 O20           -7.6810     0.4060    -0.0152 O.3     
  21 C21           -8.2757    -0.8220    -0.4398 C.3     
  22 C22            1.9345     4.5033    -0.8296 C.2     
  23 O23            3.0761     4.0970    -0.7189 O.2     
  24 O24            1.7055     5.7981    -1.1339 O.3     
  25 H25            0.9407    -0.5087     0.3212 H       
  26 H26            2.0898     1.9594    -0.2361 H       
  27 H27           -0.1663     3.9788    -0.7377 H       
  28 H28           -0.1200    -2.6609    -0.6627 H       
  29 H29           -1.6756    -2.3932    -1.4853 H       
  30 H30           -2.7069    -4.1868    -0.1185 H       
  31 H31           -1.3107    -4.8040    -1.0340 H       
  32 H32           -1.2597    -5.6029     1.3129 H       
  33 H33            0.1229    -4.5352     0.9713 H       
  34 H34           -2.4831    -3.6962     2.3211 H       
  35 H35           -0.9274    -3.9639     3.1436 H       
  36 H36           -1.2923    -1.5531     2.6923 H       
  37 H37            0.1039    -2.1703     1.7769 H       
  38 H38           -2.7259    -1.8218     0.6870 H       
  39 H39           -3.6276    -1.4432    -0.7135 H       
  40 H40           -3.8074     2.5974     0.7128 H       
  41 H41           -6.2631     2.4862     0.6991 H       
  42 H42           -6.0838    -1.5442    -0.7176 H       
  43 H43           -7.9692    -1.0394    -1.4630 H       
  44 H44           -7.9504    -1.6292     0.2163 H       
  45 H45           -9.3613    -0.7339    -0.3967 H       
  46 H46            2.5093     6.3242    -1.2447 H       
@<TRIPOS>BOND
   1    1    2 2
   2    1    6 1
   3    1    5 1
   4    2    3 1
   5    2   25 1
   6    3    4 1
   7    3   13 1
   8    4    5 2
   9    4   15 1
  10    6    7 2
  11    6   26 1
  12    7   22 1
  13    7   27 1
  14    8    9 1
  15    8   13 1
  16    8   28 1
  17    8   29 1
  18    9   10 1
  19    9   30 1
  20    9   31 1
  21   10   11 1
  22   10   32 1
  23   10   33 1
  24   11   12 1
  25   11   34 1
  26   11   35 1
  27   12   13 1
  28   12   36 1
  29   12   37 1
  30   13   38 1
  31   14   15 ar
  32   14   19 ar
  33   14   39 1
  34   15   16 ar
  35   16   17 ar
  36   16   40 1
  37   17   18 ar
  38   17   41 1
  39   18   19 ar
  40   18   20 1
  41   19   42 1
  42   20   21 1
  43   21   43 1
  44   21   44 1
  45   21   45 1
  46   22   23 2
  47   22   24 1
  48   24   46 1

#	End of record

