#	Name: ASD08650001
#	Creating user name:	WinNT
#	Creation time:	15. 06. 2019 21:19

#	Modifying user name:	WinNT
#	Modification time:	15. 06. 2019 21:19

#	Program:	/corina/corina34_cracker 3.40 0067  02.08.2006

@<TRIPOS>MOLECULE
ASD08650001
   2    1    0    0    0
SMALL
NO_CHARGES


@<TRIPOS>ATOM
   1 O1             0.0000     0.0000     0.0000 Du      
   2 C2             0.0000     1.0035     0.0000 C.1     
@<TRIPOS>BOND
   1    1    2 3

#	End of record

