#	Name: ASD05730148
#	Creating user name:	WinNT
#	Creation time:	15. 06. 2019 21:02

#	Modifying user name:	WinNT
#	Modification time:	15. 06. 2019 21:02

#	Program:	/corina/corina34_cracker 3.40 0067  02.08.2006

@<TRIPOS>MOLECULE
ASD05730148
  88   93    0    0    0
SMALL
NO_CHARGES


@<TRIPOS>ATOM
   1 N1             7.4938     3.3813    -0.7123 N.3     
   2 C2             6.7440     2.2060    -0.5898 C.ar    
   3 C3             5.4198     2.1804    -1.0074 C.ar    
   4 C4             4.6802     1.0207    -0.8870 C.ar    
   5 C5             5.2606    -0.1201    -0.3482 C.ar    
   6 C6             6.5847    -0.0945     0.0694 C.ar    
   7 C7             7.3259     1.0636    -0.0559 C.ar    
   8 N8             4.5102    -1.2964    -0.2255 N.pl3   
   9 C9             5.1241    -2.5253    -0.3690 C.ar    
  10 N10            4.4195    -3.6217    -0.1335 N.ar    
  11 C11            4.9753    -4.8213    -0.2609 C.ar    
  12 C12            6.3296    -4.9031    -0.6516 C.ar    
  13 C13            7.0327    -3.7124    -0.8892 C.ar    
  14 N14            6.3983    -2.5643    -0.7432 N.ar    
  15 N15            4.2530    -5.9624    -0.0186 N.am    
  16 C16            4.8219    -7.1763    -0.1489 C.2     
  17 C17            6.2246    -7.2964    -0.5521 C.2     
  18 C18            6.9529    -6.1632    -0.7974 C.2     
  19 C19            2.8489    -5.8594     0.3865 C.3     
  20 O20            4.1663    -8.1793     0.0701 O.2     
  21 C21            6.8495    -8.6322    -0.6948 C.ar    
  22 C22            8.8621     3.1875    -0.2127 C.3     
  23 C23            1.9683    -6.5756    -0.6399 C.3     
  24 C24            9.6703     4.4678    -0.4369 C.3     
  25 C25            6.7161    -9.3436    -1.8871 C.ar    
  26 C26            7.5780    -9.1802     0.3603 C.ar    
  27 C27            8.1584   -10.4244     0.2219 C.ar    
  28 C28            8.0184   -11.1284    -0.9619 C.ar    
  29 C29            7.3004   -10.5866    -2.0148 C.ar    
  30 Cl30           8.7511   -12.6933    -1.1293 Cl      
  31 C31            6.8371     4.4994    -0.0208 C.3     
  32 C32            7.6452     5.7797    -0.2450 C.3     
  33 N33            9.0136     5.5859     0.2546 N.3     
  34 C34            9.8006     6.8196     0.1260 C.3     
  35 C35            2.6656    -6.5088     1.7601 C.3     
  36 C36            1.2036    -6.3687     2.1957 C.3     
  37 N37            0.3415    -6.9262     1.1447 N.am    
  38 C38            0.4984    -6.4362    -0.2315 C.3     
  39 S39           -0.7853    -8.0852     1.5043 S.o2    
  40 C40           -2.2836    -7.1482     1.9139 C.3     
  41 O41           -0.9588    -8.7953     0.2858 O.2     
  42 O42           -0.2685    -8.7296     2.6606 O.2     
  43 S43            5.8024    -8.6559    -3.2276 S.o2    
  44 C44            6.8701    -7.3403    -3.8755 C.3     
  45 C45            8.2098    -7.9383    -4.3097 C.3     
  46 C46            6.1929    -6.6796    -5.0779 C.3     
  47 O47            5.6986    -9.7202    -4.1635 O.2     
  48 O48            4.6452    -8.1029    -2.6158 O.2     
  49 H49            4.9683     3.0677    -1.4261 H       
  50 H50            3.6503     1.0009    -1.2114 H       
  51 H51            7.0360    -0.9817     0.4885 H       
  52 H52            8.3557     1.0835     0.2689 H       
  53 H53            3.5593    -1.2480    -0.0399 H       
  54 H54            8.0698    -3.7350    -1.1896 H       
  55 H55            7.9886    -6.2312    -1.0960 H       
  56 H56            2.5626    -4.8090     0.4404 H       
  57 H57            8.8313     2.9588     0.8526 H       
  58 H58            9.3316     2.3626    -0.7486 H       
  59 H59            2.1169    -6.1276    -1.6225 H       
  60 H60            2.2372    -7.6313    -0.6764 H       
  61 H61           10.6772     4.3363    -0.0408 H       
  62 H62            9.7241     4.6816    -1.5043 H       
  63 H63            7.6882    -8.6317     1.2841 H       
  64 H64            8.7232   -10.8497     1.0383 H       
  65 H65            7.1939   -11.1402    -2.9360 H       
  66 H66            5.8301     4.6309    -0.4169 H       
  67 H67            6.7832     4.2856     1.0466 H       
  68 H68            7.6760     6.0084    -1.3103 H       
  69 H69            7.1757     6.6046     0.2909 H       
  70 H70            9.3272     7.6143     0.7026 H       
  71 H71           10.8089     6.6483     0.5030 H       
  72 H72            9.8496     7.1116    -0.9230 H       
  73 H73            2.9279    -7.5651     1.7010 H       
  74 H74            3.3105    -6.0134     2.4858 H       
  75 H75            1.0455    -6.9146     3.1258 H       
  76 H76            0.9656    -5.3152     2.3430 H       
  77 H77            0.2029    -5.3882    -0.2822 H       
  78 H78           -0.1250    -7.0267    -0.9029 H       
  79 H79           -2.5803    -6.5444     1.0563 H       
  80 H80           -3.0871    -7.8401     2.1666 H       
  81 H81           -2.0837    -6.4971     2.7649 H       
  82 H82            7.0397    -6.5945    -3.0989 H       
  83 H83            8.0341    -8.7445    -5.0219 H       
  84 H84            8.8178    -7.1649    -4.7792 H       
  85 H85            8.7320    -8.3314    -3.4374 H       
  86 H86            5.2384    -6.2536    -4.7685 H       
  87 H87            6.8345    -5.8891    -5.4672 H       
  88 H88            6.0232    -7.4254    -5.8545 H       
@<TRIPOS>BOND
   1    1    2 1
   2    1   22 1
   3    1   31 1
   4    2    3 ar
   5    2    7 ar
   6    3    4 ar
   7    3   49 1
   8    4    5 ar
   9    4   50 1
  10    5    6 ar
  11    5    8 1
  12    6    7 ar
  13    6   51 1
  14    7   52 1
  15    8    9 1
  16    8   53 1
  17    9   10 ar
  18    9   14 ar
  19   10   11 ar
  20   11   12 ar
  21   11   15 1
  22   12   13 ar
  23   12   18 1
  24   13   14 ar
  25   13   54 1
  26   15   16 am
  27   15   19 1
  28   16   17 1
  29   16   20 2
  30   17   18 2
  31   17   21 1
  32   18   55 1
  33   19   35 1
  34   19   23 1
  35   19   56 1
  36   21   25 ar
  37   21   26 ar
  38   22   24 1
  39   22   57 1
  40   22   58 1
  41   23   38 1
  42   23   59 1
  43   23   60 1
  44   24   33 1
  45   24   61 1
  46   24   62 1
  47   25   43 1
  48   25   29 ar
  49   26   27 ar
  50   26   63 1
  51   27   28 ar
  52   27   64 1
  53   28   29 ar
  54   28   30 1
  55   29   65 1
  56   31   32 1
  57   31   66 1
  58   31   67 1
  59   32   33 1
  60   32   68 1
  61   32   69 1
  62   33   34 1
  63   34   70 1
  64   34   71 1
  65   34   72 1
  66   35   36 1
  67   35   73 1
  68   35   74 1
  69   36   37 1
  70   36   75 1
  71   36   76 1
  72   37   38 1
  73   37   39 am
  74   38   77 1
  75   38   78 1
  76   39   40 1
  77   39   41 2
  78   39   42 2
  79   40   79 1
  80   40   80 1
  81   40   81 1
  82   43   44 1
  83   43   47 2
  84   43   48 2
  85   44   45 1
  86   44   46 1
  87   44   82 1
  88   45   83 1
  89   45   84 1
  90   45   85 1
  91   46   86 1
  92   46   87 1
  93   46   88 1

#	End of record

