#	Name: ASD01813280
#	Creating user name:	WinNT
#	Creation time:	15. 06. 2019 19:30

#	Modifying user name:	WinNT
#	Modification time:	15. 06. 2019 19:30

#	Program:	/corina/corina34_cracker 3.40 0067  02.08.2006

@<TRIPOS>MOLECULE
ASD01813280
  56   59    0    0    0
SMALL
NO_CHARGES


@<TRIPOS>ATOM
   1 C1             1.7545     3.2537    -7.1454 C.3     
   2 O2             1.8956     3.0626    -5.7363 O.3     
   3 C3             2.0433     1.7839    -5.2986 C.ar    
   4 C4             2.0580     0.7365    -6.2065 C.ar    
   5 C5             2.2088    -0.5627    -5.7594 C.ar    
   6 C6             2.3449    -0.8193    -4.4081 C.ar    
   7 C7             2.5091    -2.2372    -3.9246 C.3     
   8 N8             3.9352    -2.5487    -3.8004 N.pl3   
   9 C9             4.9416    -1.7339    -4.1947 C.2     
  10 C10            6.1437    -2.3263    -3.9363 C.2     
  11 C11            7.4750    -1.7703    -4.2143 C.2     
  12 O12            8.4718    -2.4080    -3.9314 O.2     
  13 N13            7.5920    -0.5539    -4.7828 N.am    
  14 C14            8.9194     0.0004    -5.0600 C.3     
  15 H15            9.6122    -0.3065    -4.2765 H       
  16 C16            9.4161    -0.5170    -6.4115 C.3     
  17 C17           10.8024     0.0620    -6.7010 C.3     
  18 C18           10.7195     1.5892    -6.7389 C.3     
  19 C19           10.2228     2.1067    -5.3874 C.3     
  20 C20            8.8365     1.5277    -5.0979 C.3     
  21 H21            8.1437     1.8347    -5.8814 H       
  22 O22            8.3726     2.0110    -3.8356 O.3     
  23 C23            5.8446    -3.6331    -3.3231 C.ar    
  24 N24            6.5966    -4.6280    -2.8707 N.ar    
  25 C25            6.0603    -5.7149    -2.3565 C.ar    
  26 C26            4.6856    -5.8636    -2.2672 C.ar    
  27 C27            3.8568    -4.8545    -2.7251 C.ar    
  28 C28            2.3581    -4.9874    -2.6407 C.3     
  29 C29            4.4430    -3.7109    -3.2598 C.ar    
  30 C30            2.3313     0.2227    -3.4989 C.ar    
  31 C31            2.1856     1.5250    -3.9409 C.ar    
  32 F32            2.1769     2.5436    -3.0535 F       
  33 H33            2.6388     2.8702    -7.6545 H       
  34 H34            0.8721     2.7197    -7.4980 H       
  35 H35            1.6451     4.3170    -7.3587 H       
  36 H36            1.9513     0.9355    -7.2627 H       
  37 H37            2.2198    -1.3786    -6.4670 H       
  38 H38            2.0270    -2.3479    -2.9533 H       
  39 H39            2.0489    -2.9201    -4.6387 H       
  40 H40            4.8128    -0.7614    -4.6462 H       
  41 H41            6.7973    -0.0455    -5.0084 H       
  42 H42            9.4752    -1.6051    -6.3845 H       
  43 H43            8.7233    -0.2101    -7.1950 H       
  44 H44           11.4953    -0.2450    -5.9175 H       
  45 H45           11.1563    -0.3067    -7.6638 H       
  46 H46           11.7072     2.0017    -6.9451 H       
  47 H47           10.0267     1.8962    -7.5224 H       
  48 H48           10.9156     1.7997    -4.6039 H       
  49 H49           10.1638     3.1948    -5.4144 H       
  50 H50            8.2955     2.9737    -3.7873 H       
  51 H51            6.7034    -6.5051    -1.9983 H       
  52 H52            4.2632    -6.7623    -1.8427 H       
  53 H53            2.0011    -4.5043    -1.7312 H       
  54 H54            1.9017    -4.5109    -3.5083 H       
  55 H55            2.0874    -6.0431    -2.6217 H       
  56 H56            2.4382     0.0197    -2.4436 H       
@<TRIPOS>BOND
   1    1    2 1
   2    1   33 1
   3    1   34 1
   4    1   35 1
   5    2    3 1
   6    3   31 ar
   7    3    4 ar
   8    4    5 ar
   9    4   36 1
  10    5    6 ar
  11    5   37 1
  12    6    7 1
  13    6   30 ar
  14    7    8 1
  15    7   38 1
  16    7   39 1
  17    8   29 1
  18    8    9 1
  19    9   10 2
  20    9   40 1
  21   10   11 1
  22   10   23 1
  23   11   12 2
  24   11   13 am
  25   13   14 1
  26   13   41 1
  27   14   15 1
  28   14   20 1
  29   14   16 1
  30   16   17 1
  31   16   42 1
  32   16   43 1
  33   17   18 1
  34   17   44 1
  35   17   45 1
  36   18   19 1
  37   18   46 1
  38   18   47 1
  39   19   20 1
  40   19   48 1
  41   19   49 1
  42   20   21 1
  43   20   22 1
  44   22   50 1
  45   23   29 ar
  46   23   24 ar
  47   24   25 ar
  48   25   26 ar
  49   25   51 1
  50   26   27 ar
  51   26   52 1
  52   27   28 1
  53   27   29 ar
  54   28   53 1
  55   28   54 1
  56   28   55 1
  57   30   31 ar
  58   30   56 1
  59   31   32 1

#	End of record

