#	Name: ASD04840027
#	Creating user name:	WinNT
#	Creation time:	15. 06. 2019 20:52

#	Modifying user name:	WinNT
#	Modification time:	15. 06. 2019 20:52

#	Program:	/corina/corina34_cracker 3.40 0067  02.08.2006

@<TRIPOS>MOLECULE
ASD04840027
  49   51    0    0    0
SMALL
NO_CHARGES


@<TRIPOS>ATOM
   1 C1             0.3254     1.5747     0.3065 C.3     
   2 C2             0.1515     0.0727     0.1107 C.3     
   3 C3             0.7338    -0.6778     1.3191 C.3     
   4 C4             2.1826    -0.2973     1.5022 C.3     
   5 C5             2.4883     1.1969     1.5417 C.3     
   6 C6             1.8134     1.9246     0.3898 C.3     
   7 C7             2.8351    -0.9366     2.7064 C.2     
   8 C8             4.3040    -0.7691     2.7560 C.2     
   9 C9             4.8466     0.3467     2.1349 C.2     
  10 C10            3.9969     1.3585     1.4920 C.2     
  11 C11            6.3114     0.4879     2.1329 C.2     
  12 C12            6.8914     1.5332     1.5178 C.2     
  13 C13            6.0548     2.5344     0.8569 C.2     
  14 C14            4.5823     2.4107     0.8837 C.2     
  15 C15            2.0359     1.8159     2.8680 C.3     
  16 C16           -0.1392    -0.4245     2.5440 C.3     
  17 C17            0.6597    -2.1860     0.9909 C.3     
  18 O18            3.8732     3.4012     0.2855 O.3     
  19 O19            6.5671     3.4765     0.2798 O.2     
  20 C20            8.3917     1.6707     1.5087 C.3     
  21 C21            8.8948     1.6731     0.0638 C.3     
  22 C22            8.7877     2.9828     2.1887 C.3     
  23 O23            2.2515    -1.5440     3.5686 O.2     
  24 H24           -0.1066     2.0943    -0.5578 H       
  25 H25           -0.1941     1.9119     1.1973 H       
  26 H26           -0.9070    -0.1668     0.0175 H       
  27 H27            0.6769    -0.2430    -0.7909 H       
  28 H28            2.7316    -0.6999     0.6150 H       
  29 H29            2.3020     1.6783    -0.5511 H       
  30 H30            1.8714     3.0075     0.5627 H       
  31 H31            4.9265    -1.4900     3.2578 H       
  32 H32            6.9214    -0.2527     2.6293 H       
  33 H33            2.4631     1.2514     3.6968 H       
  34 H34            2.3747     2.8506     2.9203 H       
  35 H35            0.9481     1.7862     2.9305 H       
  36 H36           -1.1148    -0.8878     2.3969 H       
  37 H37            0.3378    -0.8537     3.4251 H       
  38 H38           -0.2644     0.6491     2.6852 H       
  39 H39            1.2416    -2.3913     0.0924 H       
  40 H40            1.0643    -2.7596     1.8248 H       
  41 H41           -0.3791    -2.4709     0.8240 H       
  42 H42            4.4206     4.0974    -0.1028 H       
  43 H43            8.8365     0.8338     2.0470 H       
  44 H44            8.4499     2.5100    -0.4745 H       
  45 H45            9.9802     1.7726     0.0571 H       
  46 H46            8.6126     0.7383    -0.4207 H       
  47 H47            8.3428     3.8197     1.6504 H       
  48 H48            8.4292     2.9812     3.2181 H       
  49 H49            9.8731     3.0823     2.1821 H       
@<TRIPOS>BOND
   1    1    2 1
   2    1    6 1
   3    1   24 1
   4    1   25 1
   5    2    3 1
   6    2   26 1
   7    2   27 1
   8    3    4 1
   9    3   16 1
  10    3   17 1
  11    4    5 1
  12    4    7 1
  13    4   28 1
  14    5    6 1
  15    5   15 1
  16    5   10 1
  17    6   29 1
  18    6   30 1
  19    7    8 1
  20    7   23 2
  21    8    9 2
  22    8   31 1
  23    9   10 1
  24    9   11 1
  25   10   14 2
  26   11   12 2
  27   11   32 1
  28   12   13 1
  29   12   20 1
  30   13   14 1
  31   13   19 2
  32   14   18 1
  33   15   33 1
  34   15   34 1
  35   15   35 1
  36   16   36 1
  37   16   37 1
  38   16   38 1
  39   17   39 1
  40   17   40 1
  41   17   41 1
  42   18   42 1
  43   20   21 1
  44   20   22 1
  45   20   43 1
  46   21   44 1
  47   21   45 1
  48   21   46 1
  49   22   47 1
  50   22   48 1
  51   22   49 1

#	End of record

