#	Name: ASD03731881
#	Creating user name:	WinNT
#	Creation time:	15. 06. 2019 20:46

#	Modifying user name:	WinNT
#	Modification time:	15. 06. 2019 20:46

#	Program:	/corina/corina34_cracker 3.40 0067  02.08.2006

@<TRIPOS>MOLECULE
ASD03731881
  29   30    0    0    0
SMALL
NO_CHARGES


@<TRIPOS>ATOM
   1 C1            -0.0179     1.4705     0.0101 C.2     
   2 C2             0.0021    -0.0041     0.0020 C.ar    
   3 C3             1.2211    -0.6881    -0.0133 C.ar    
   4 C4             1.2360    -2.0670    -0.0209 C.ar    
   5 C5             0.0397    -2.7774    -0.0133 C.ar    
   6 C6            -1.1755    -2.0998     0.0019 C.ar    
   7 C7            -1.1979    -0.7211     0.0154 C.ar    
   8 O8             1.0260     2.0922     0.0035 O.2     
   9 O9            -1.1939     2.1283     0.0193 O.3     
  10 F10           -2.3347    -2.7936     0.0092 F       
  11 F11            2.4137    -2.7289    -0.0361 F       
  12 O12            0.0581    -4.1351    -0.0213 O.3     
  13 C13            0.0784    -4.7799     1.1748 C.ar    
  14 C14            0.0977    -6.1669     1.2162 C.ar    
  15 C15            0.1188    -6.8203     2.4328 C.ar    
  16 C16            0.1207    -6.0927     3.6101 C.ar    
  17 C17            0.1011    -4.7099     3.5710 C.ar    
  18 C18            0.0857    -4.0524     2.3561 C.ar    
  19 C19            0.1393    -8.3264     2.4783 C.3     
  20 F20            0.1326    -8.8326     1.1741 F       
  21 F21            1.2942    -8.7573     3.1399 F       
  22 F22           -0.9901    -8.7876     3.1633 F       
  23 Cl23           0.1473    -6.9164     5.1380 Cl      
  24 H24            2.1500    -0.1373    -0.0195 H       
  25 H25           -2.1414    -0.1958     0.0317 H       
  26 H26           -1.1564     3.0945     0.0244 H       
  27 H27            0.0958    -6.7350     0.2977 H       
  28 H28            0.1019    -4.1440     4.4909 H       
  29 H29            0.0749    -2.9729     2.3259 H       
@<TRIPOS>BOND
   1    1    2 1
   2    1    8 2
   3    1    9 1
   4    2    3 ar
   5    2    7 ar
   6    3    4 ar
   7    3   24 1
   8    4    5 ar
   9    4   11 1
  10    5    6 ar
  11    5   12 1
  12    6    7 ar
  13    6   10 1
  14    7   25 1
  15    9   26 1
  16   12   13 1
  17   13   14 ar
  18   13   18 ar
  19   14   15 ar
  20   14   27 1
  21   15   16 ar
  22   15   19 1
  23   16   17 ar
  24   16   23 1
  25   17   18 ar
  26   17   28 1
  27   18   29 1
  28   19   20 1
  29   19   21 1
  30   19   22 1

#	End of record

