#	Name: ASD01916218
#	Creating user name:	WinNT
#	Creation time:	15. 06. 2019 20:06

#	Modifying user name:	WinNT
#	Modification time:	15. 06. 2019 20:06

#	Program:	/corina/corina34_cracker 3.40 0067  02.08.2006

@<TRIPOS>MOLECULE
ASD01916218
  43   46    0    0    0
SMALL
NO_CHARGES


@<TRIPOS>ATOM
   1 C1            -0.3869     1.7172     0.1124 C.ar    
   2 C2            -0.5137     0.3666     0.3818 C.ar    
   3 N3             0.5329    -0.3593     0.7134 N.ar    
   4 C4             1.7490     0.1670     0.8034 C.ar    
   5 C5             1.9566     1.5186     0.5473 C.ar    
   6 C6             0.8690     2.3131     0.1941 C.ar    
   7 C7            -1.8705    -0.2835     0.2949 C.3     
   8 O8             1.0290     3.6360    -0.0642 O.3     
   9 C9             2.2788     4.1599     0.0402 C.ar    
  10 C10            3.2181     3.9710    -0.9684 C.ar    
  11 N11            4.4239     4.4969    -0.8293 N.ar    
  12 C12            4.7392     5.1911     0.2457 C.ar    
  13 N13            3.8774     5.3920     1.2224 N.ar    
  14 C14            2.6498     4.9036     1.1557 C.ar    
  15 C15            2.8948    -0.6930     1.1805 C.2     
  16 N16            2.7006    -2.0030     1.4303 N.am    
  17 O17            4.0098    -0.2172     1.2645 O.2     
  18 C18            3.7915    -2.8340     1.6817 C.ar    
  19 C19            3.5956    -4.2028     1.8229 C.ar    
  20 C20            4.6865    -5.0173     2.0717 C.ar    
  21 C21            5.9424    -4.4307     2.1712 C.ar    
  22 C22            6.0628    -3.0610     2.0197 C.ar    
  23 N23            5.0040    -2.3122     1.7781 N.ar    
  24 F24            7.0334    -5.1896     2.4138 F       
  25 C25            6.1251     5.7715     0.3617 C.3     
  26 C26            6.2459     7.2911     0.4928 C.3     
  27 C27            6.5201     6.3947     1.7020 C.3     
  28 H28           -1.2518     2.3025    -0.1627 H       
  29 H29            2.9460     1.9451     0.6217 H       
  30 H30           -2.0319    -0.6536    -0.7176 H       
  31 H31           -1.9207    -1.1150     0.9979 H       
  32 H32           -2.6403     0.4478     0.5414 H       
  33 H33            2.9668     3.4029    -1.8518 H       
  34 H34            1.9471     5.0764     1.9575 H       
  35 H35            1.8018    -2.3678     1.4353 H       
  36 H36            2.6051    -4.6252     1.7398 H       
  37 H37            4.5645    -6.0843     2.1863 H       
  38 H38            7.0363    -2.5995     2.0960 H       
  39 H39            6.9010     5.2515    -0.2001 H       
  40 H40            7.1016     7.7708     0.0176 H       
  41 H41            5.3230     7.8710     0.4951 H       
  42 H42            5.7775     6.3849     2.4999 H       
  43 H43            7.5561     6.2847     2.0224 H       
@<TRIPOS>BOND
   1    1    2 ar
   2    1    6 ar
   3    1   28 1
   4    2    3 ar
   5    2    7 1
   6    3    4 ar
   7    4    5 ar
   8    4   15 1
   9    5    6 ar
  10    5   29 1
  11    6    8 1
  12    7   30 1
  13    7   31 1
  14    7   32 1
  15    8    9 1
  16    9   10 ar
  17    9   14 ar
  18   10   11 ar
  19   10   33 1
  20   11   12 ar
  21   12   25 1
  22   12   13 ar
  23   13   14 ar
  24   14   34 1
  25   15   16 am
  26   15   17 2
  27   16   18 1
  28   16   35 1
  29   18   19 ar
  30   18   23 ar
  31   19   20 ar
  32   19   36 1
  33   20   21 ar
  34   20   37 1
  35   21   22 ar
  36   21   24 1
  37   22   23 ar
  38   22   38 1
  39   25   26 1
  40   25   27 1
  41   25   39 1
  42   26   27 1
  43   26   40 1
  44   26   41 1
  45   27   42 1
  46   27   43 1

#	End of record

