#	Name: ASD01915862
#	Creating user name:	WinNT
#	Creation time:	15. 06. 2019 20:06

#	Modifying user name:	WinNT
#	Modification time:	15. 06. 2019 20:06

#	Program:	/corina/corina34_cracker 3.40 0067  02.08.2006

@<TRIPOS>MOLECULE
ASD01915862
  45   49    0    0    0
SMALL
NO_CHARGES


@<TRIPOS>ATOM
   1 C1            -0.0042     1.4691     0.2361 C.2     
   2 N2             0.0666     0.1200    -0.0302 N.pl3   
   3 C3            -1.1422    -0.6628    -0.3144 C.3     
   4 C4            -2.3278    -0.0488     0.4281 C.3     
   5 N5            -2.4044     1.3988     0.2637 N.am    
   6 C6            -1.2936     2.1744     0.2876 C.2     
   7 C7             1.2761     1.9064     0.4282 C.2     
   8 C8             2.0760     0.7659     0.2752 C.2     
   9 N9             1.2869    -0.2493     0.0109 N.2     
  10 C10            3.5775     0.7143     0.3923 C.3     
  11 O11            4.0775     2.0201     0.6873 O.3     
  12 C12            5.4232     2.1486     0.8261 C.ar    
  13 O13           -1.3594     3.3875     0.3483 O.2     
  14 C14            5.9769     3.3879     1.1128 C.ar    
  15 C15            6.2452     1.0397     0.6869 C.ar    
  16 C16            7.6129     1.1730     0.8285 C.ar    
  17 C17            8.1627     2.4104     1.1086 C.ar    
  18 C18            7.3452     3.5160     1.2534 C.ar    
  19 C19           -3.6528     1.9996     0.0768 C.ar    
  20 C20           -3.9527     2.5883    -1.1334 C.ar    
  21 C21           -5.2064     3.1881    -1.3131 C.ar    
  22 C22           -6.1475     3.1814    -0.2505 C.ar    
  23 C23           -5.8093     2.5733     0.9675 C.ar    
  24 C24           -4.5881     1.9924     1.1179 C.ar    
  25 C25           -5.5723     3.8055    -2.5232 C.ar    
  26 N26           -6.7702     4.3473    -2.6120 N.ar    
  27 C27           -7.6217     4.3205    -1.5969 C.ar    
  28 N28           -7.3389     3.7609    -0.4454 N.ar    
  29 H29           -1.3391    -0.6518    -1.3865 H       
  30 H30           -0.9969    -1.6904     0.0188 H       
  31 H31           -3.2483    -0.4951     0.0520 H       
  32 H32           -2.2356    -0.2783     1.4897 H       
  33 H33            1.6010     2.9124     0.6494 H       
  34 H34            3.8562     0.0291     1.1929 H       
  35 H35            4.0036     0.3661    -0.5486 H       
  36 H36            5.3388     4.2519     1.2257 H       
  37 H37            5.8162     0.0730     0.4685 H       
  38 H38            8.2532     0.3100     0.7206 H       
  39 H39            9.2322     2.5125     1.2188 H       
  40 H40            7.7771     4.4815     1.4718 H       
  41 H41           -3.2285     2.5876    -1.9347 H       
  42 H42           -6.5180     2.5627     1.7825 H       
  43 H43           -4.3336     1.5255     2.0580 H       
  44 H44           -4.8883     3.8349    -3.3585 H       
  45 H45           -8.5907     4.7802    -1.7235 H       
@<TRIPOS>BOND
   1    1    2 1
   2    1    7 2
   3    1    6 1
   4    2    3 1
   5    2    9 1
   6    3    4 1
   7    3   29 1
   8    3   30 1
   9    4    5 1
  10    4   31 1
  11    4   32 1
  12    5    6 am
  13    5   19 1
  14    6   13 2
  15    7    8 1
  16    7   33 1
  17    8    9 2
  18    8   10 1
  19   10   11 1
  20   10   34 1
  21   10   35 1
  22   11   12 1
  23   12   14 ar
  24   12   15 ar
  25   14   18 ar
  26   14   36 1
  27   15   16 ar
  28   15   37 1
  29   16   17 ar
  30   16   38 1
  31   17   18 ar
  32   17   39 1
  33   18   40 1
  34   19   20 ar
  35   19   24 ar
  36   20   21 ar
  37   20   41 1
  38   21   22 ar
  39   21   25 ar
  40   22   23 ar
  41   22   28 ar
  42   23   24 ar
  43   23   42 1
  44   24   43 1
  45   25   26 ar
  46   25   44 1
  47   26   27 ar
  48   27   28 ar
  49   27   45 1

#	End of record

