#	Name: ASD01901503
#	Creating user name:	WinNT
#	Creation time:	15. 06. 2019 19:53

#	Modifying user name:	WinNT
#	Modification time:	15. 06. 2019 19:53

#	Program:	/corina/corina34_cracker 3.40 0067  02.08.2006

@<TRIPOS>MOLECULE
ASD01901503
  40   43    0    0    0
SMALL
NO_CHARGES


@<TRIPOS>ATOM
   1 C1            -0.0168     1.3893     0.0097 C.ar    
   2 C2             1.1696     2.0934     0.0021 C.ar    
   3 C3             2.3788     1.4169    -0.0130 C.ar    
   4 C4             2.4022     0.0320    -0.0212 C.ar    
   5 C5             1.2201    -0.6801    -0.0142 C.ar    
   6 C6             0.0021    -0.0041     0.0020 C.ar    
   7 C7            -1.2718    -0.7657     0.0101 C.2     
   8 N8            -3.1802    -1.5350    -1.1478 N.2     
   9 C9            -2.0561    -0.8613    -1.1600 C.2     
  10 C10           -1.6993    -1.3891     1.1488 C.2     
  11 N11           -2.8740    -2.0808     1.1217 N.pl3   
  12 C12           -3.6099    -2.1458    -0.0334 C.2     
  13 C13           -3.5518    -2.7936     2.0737 C.2     
  14 C14           -4.6707    -3.2720     1.4892 C.2     
  15 N15           -4.6921    -2.8698     0.2151 N.2     
  16 C16           -5.7216    -4.1170     2.1621 C.3     
  17 O17           -5.3537    -4.3388     3.5250 O.3     
  18 C18           -6.1992    -5.0870     4.2773 C.ar    
  19 C19           -5.8961    -5.3375     5.6092 C.ar    
  20 N20           -7.3072    -5.5664     3.7366 N.ar    
  21 C21           -8.1565    -6.2982     4.4322 C.ar    
  22 C22           -7.9159    -6.5913     5.7600 C.ar    
  23 C23           -6.7671    -6.1022     6.3659 C.ar    
  24 C24           -1.3313     2.1260     0.0325 C.3     
  25 F25            3.5384     2.1102    -0.0204 F       
  26 F26           -1.7191     2.3470     1.3584 F       
  27 H27            1.1559     3.1733     0.0077 H       
  28 H28            3.3469    -0.4913    -0.0334 H       
  29 H29            1.2391    -1.7599    -0.0205 H       
  30 H30           -1.7287    -0.3772    -2.0682 H       
  31 H31           -1.1156    -1.3350     2.0558 H       
  32 H32           -3.2486    -2.9448     3.0992 H       
  33 H33           -6.6813    -3.6016     2.1241 H       
  34 H34           -5.8026    -5.0742     1.6472 H       
  35 H35           -4.9927    -4.9411     6.0487 H       
  36 H36           -9.0513    -6.6724     3.9572 H       
  37 H37           -8.6164    -7.1911     6.3221 H       
  38 H38           -6.5573    -6.3138     7.4040 H       
  39 H39           -1.2205     3.0827    -0.4779 H       
  40 H40           -2.0907     1.5300    -0.4737 H       
@<TRIPOS>BOND
   1    1    6 ar
   2    1    2 ar
   3    1   24 1
   4    2    3 ar
   5    2   27 1
   6    3    4 ar
   7    3   25 1
   8    4    5 ar
   9    4   28 1
  10    5    6 ar
  11    5   29 1
  12    6    7 1
  13    7   10 2
  14    7    9 1
  15    8    9 2
  16    8   12 1
  17    9   30 1
  18   10   11 1
  19   10   31 1
  20   11   13 1
  21   11   12 1
  22   12   15 2
  23   13   14 2
  24   13   32 1
  25   14   15 1
  26   14   16 1
  27   16   17 1
  28   16   33 1
  29   16   34 1
  30   17   18 1
  31   18   19 ar
  32   18   20 ar
  33   19   23 ar
  34   19   35 1
  35   20   21 ar
  36   21   22 ar
  37   21   36 1
  38   22   23 ar
  39   22   37 1
  40   23   38 1
  41   24   26 1
  42   24   39 1
  43   24   40 1

#	End of record

