#	Name: ASD05313225
#	Creating user name:	WinNT
#	Creation time:	15. 06. 2019 20:58

#	Modifying user name:	WinNT
#	Modification time:	15. 06. 2019 20:58

#	Program:	/corina/corina34_cracker 3.40 0067  02.08.2006

@<TRIPOS>MOLECULE
ASD05313225
  42   45    0    0    0
SMALL
NO_CHARGES


@<TRIPOS>ATOM
   1 C1            -0.4512     1.1336     1.2156 C.2     
   2 C2            -0.1740    -0.3401     1.0170 C.3     
   3 N3             0.5170     2.0781     1.2644 N.pl3   
   4 N4             1.2448    -0.4659     0.6364 N.am    
   5 C5             2.2320     0.3403     1.3706 C.3     
   6 C6             1.9522     1.8266     1.1207 C.3     
   7 N7            -1.6103     1.7056     1.3705 N.2     
   8 C8            -1.4406     3.0244     1.5259 C.2     
   9 C9            -0.1042     3.2854     1.4650 C.2     
  10 C10            0.5469     4.6057     1.5926 C.ar    
  11 C11            1.9202     4.7251     1.3724 C.ar    
  12 C12            2.5145     5.9677     1.4957 C.ar    
  13 C13            1.7180     7.0533     1.8354 C.ar    
  14 C14            0.3641     6.8645     2.0393 C.ar    
  15 N15           -0.1800     5.6712     1.9106 N.ar    
  16 C16            1.6262    -1.2956    -0.3549 C.2     
  17 O17            2.7854    -1.3135    -0.7204 O.2     
  18 C18            0.6351    -2.1836    -0.9975 C.ar    
  19 C19            0.6148    -2.3230    -2.3877 C.ar    
  20 C20           -0.3145    -3.1548    -2.9809 C.ar    
  21 C21           -1.2233    -3.8479    -2.2019 C.ar    
  22 C22           -1.2084    -3.7135    -0.8248 C.ar    
  23 C23           -0.2815    -2.8914    -0.2182 C.ar    
  24 C24           -0.3388    -3.3072    -4.4800 C.3     
  25 F25           -1.3583    -4.1943    -4.8421 F       
  26 F26           -0.5728    -2.0613    -5.0717 F       
  27 F27            0.8921    -3.8077    -4.9178 F       
  28 Cl28           1.7542    -1.4528    -3.3665 Cl      
  29 H29           -0.3594    -0.8815     1.9447 H       
  30 H30           -0.8082    -0.7338     0.2226 H       
  31 H31            2.1542     0.1290     2.4371 H       
  32 H32            3.2350     0.0947     1.0217 H       
  33 H33            2.2692     2.0924     0.1123 H       
  34 H34            2.5015     2.4270     1.8459 H       
  35 H35           -2.2240     3.7527     1.6752 H       
  36 H36            2.5102     3.8594     1.1099 H       
  37 H37            3.5749     6.0910     1.3318 H       
  38 H38            2.1526     8.0365     1.9396 H       
  39 H39           -0.2573     7.7074     2.3036 H       
  40 H40           -1.9482    -4.4968    -2.6707 H       
  41 H41           -1.9215    -4.2572    -0.2229 H       
  42 H42           -0.2682    -2.7918     0.8571 H       
@<TRIPOS>BOND
   1    1    2 1
   2    1    3 1
   3    1    7 2
   4    2    4 1
   5    2   29 1
   6    2   30 1
   7    3    6 1
   8    3    9 1
   9    4    5 1
  10    4   16 am
  11    5    6 1
  12    5   31 1
  13    5   32 1
  14    6   33 1
  15    6   34 1
  16    7    8 1
  17    8    9 2
  18    8   35 1
  19    9   10 1
  20   10   11 ar
  21   10   15 ar
  22   11   12 ar
  23   11   36 1
  24   12   13 ar
  25   12   37 1
  26   13   14 ar
  27   13   38 1
  28   14   15 ar
  29   14   39 1
  30   16   17 2
  31   16   18 1
  32   18   19 ar
  33   18   23 ar
  34   19   20 ar
  35   19   28 1
  36   20   21 ar
  37   20   24 1
  38   21   22 ar
  39   21   40 1
  40   22   23 ar
  41   22   41 1
  42   23   42 1
  43   24   25 1
  44   24   26 1
  45   24   27 1

#	End of record

