#	Name: ASD01881390
#	Creating user name:	WinNT
#	Creation time:	15. 06. 2019 19:42

#	Modifying user name:	WinNT
#	Modification time:	15. 06. 2019 19:42

#	Program:	/corina/corina34_cracker 3.40 0067  02.08.2006

@<TRIPOS>MOLECULE
ASD01881390
  31   33    0    0    0
SMALL
NO_CHARGES


@<TRIPOS>ATOM
   1 C1            -0.0184     1.5085     0.0103 C.2     
   2 C2             0.0021    -0.0041     0.0020 C.3     
   3 C3             0.9268    -0.4849     1.1252 C.3     
   4 C4             2.3021     0.1650     0.9644 C.3     
   5 C5             2.1811     1.6813     1.1249 C.3     
   6 C6             1.3035     2.2437     0.0017 C.3     
   7 O7            -1.0635     2.1135     0.0186 O.2     
   8 N8             3.2118    -0.3616     1.9849 N.pl3   
   9 C9             3.0229    -0.2565     3.3360 C.2     
  10 C10            4.0395    -0.8436     3.9872 C.2     
  11 C11            4.9542    -1.3674     2.9700 C.ar    
  12 C12            6.1633    -2.0642     3.0186 C.ar    
  13 C13            6.7880    -2.4211     1.8563 C.ar    
  14 C14            6.2294    -2.0956     0.6268 C.ar    
  15 C15            5.0378    -1.4084     0.5567 C.ar    
  16 C16            4.3816    -1.0412     1.7273 C.ar    
  17 Br17           8.4254    -3.3647     1.9225 Br      
  18 H18           -1.0055    -0.3848     0.1691 H       
  19 H19            0.3764    -0.3599    -0.9579 H       
  20 H20            0.5031    -0.2052     2.0898 H       
  21 H21            1.0286    -1.5689     1.0733 H       
  22 H22            2.6977    -0.0642    -0.0251 H       
  23 H23            1.7276     1.9098     2.0894 H       
  24 H24            3.1719     2.1326     1.0727 H       
  25 H25            1.7983     2.0960    -0.9583 H       
  26 H26            1.1321     3.3071     0.1685 H       
  27 H27            2.1810     0.2275     3.8085 H       
  28 H28            4.1603    -0.9155     5.0580 H       
  29 H29            6.6036    -2.3199     3.9711 H       
  30 H30            6.7346    -2.3840    -0.2831 H       
  31 H31            4.6118    -1.1593    -0.4040 H       
@<TRIPOS>BOND
   1    1    2 1
   2    1    6 1
   3    1    7 2
   4    2    3 1
   5    2   18 1
   6    2   19 1
   7    3    4 1
   8    3   20 1
   9    3   21 1
  10    4    5 1
  11    4    8 1
  12    4   22 1
  13    5    6 1
  14    5   23 1
  15    5   24 1
  16    6   25 1
  17    6   26 1
  18    8    9 1
  19    8   16 1
  20    9   10 2
  21    9   27 1
  22   10   11 1
  23   10   28 1
  24   11   12 ar
  25   11   16 ar
  26   12   13 ar
  27   12   29 1
  28   13   14 ar
  29   13   17 1
  30   14   15 ar
  31   14   30 1
  32   15   16 ar
  33   15   31 1

#	End of record

