#	Name: ASD07300265
#	Creating user name:	WinNT
#	Creation time:	15. 06. 2019 21:09

#	Modifying user name:	WinNT
#	Modification time:	15. 06. 2019 21:09

#	Program:	/corina/corina34_cracker 3.40 0067  02.08.2006

@<TRIPOS>MOLECULE
ASD07300265
  35   37    0    0    0
SMALL
NO_CHARGES


@<TRIPOS>ATOM
   1 C1             0.0705     1.5612     0.1081 C.3     
   2 C2             0.0055     0.0353     0.0153 C.3     
   3 C3            -2.2009    -0.5671    -1.0902 C.ar    
   4 C4            -3.4509    -0.9849    -0.5992 C.ar    
   5 C5            -4.4818    -1.2454    -1.5060 C.ar    
   6 C6            -4.2227    -1.0789    -2.8544 C.ar    
   7 C7            -2.9659    -0.6644    -3.2621 C.ar    
   8 N8            -2.0071    -0.4239    -2.3904 N.ar    
   9 C9            -2.1444    -0.7005     1.1201 C.2     
  10 N10           -1.3948    -0.3950     0.0191 N.pl3   
  11 N11           -3.3547    -1.0419     0.7538 N.2     
  12 N12           -1.6947    -0.6518     2.4239 N.pl3   
  13 C13           -2.5840    -0.8767     3.4789 C.ar    
  14 C14           -2.1297    -1.4418     4.6637 C.ar    
  15 C15           -3.0107    -1.6622     5.7042 C.ar    
  16 C16           -4.3438    -1.3210     5.5674 C.ar    
  17 C17           -4.7994    -0.7583     4.3892 C.ar    
  18 C18           -3.9226    -0.5303     3.3468 C.ar    
  19 N19           -5.2854    -1.5591     6.6845 N.pl3   
  20 O20           -4.8856    -2.0551     7.7227 O.2     
  21 O21           -6.4598    -1.2591     6.5655 O.2     
  22 O22            1.4364     1.9809     0.1045 O.3     
  23 H23           -0.4466     1.9994    -0.7455 H       
  24 H24           -0.4081     1.8897     1.0307 H       
  25 H25            0.4841    -0.2932    -0.9072 H       
  26 H26            0.5226    -0.4029     0.8690 H       
  27 H27           -5.4538    -1.5681    -1.1634 H       
  28 H28           -4.9952    -1.2712    -3.5843 H       
  29 H29           -2.7674    -0.5355    -4.3159 H       
  30 H30           -0.7615    -0.4616     2.6082 H       
  31 H31           -1.0887    -1.7089     4.7710 H       
  32 H32           -2.6582    -2.1019     6.6255 H       
  33 H33           -5.8411    -0.4929     4.2857 H       
  34 H34           -4.2782    -0.0870     2.4284 H       
  35 H35            1.5536     2.9391     0.1611 H       
@<TRIPOS>BOND
   1    1    2 1
   2    1   22 1
   3    1   23 1
   4    1   24 1
   5    2   10 1
   6    2   25 1
   7    2   26 1
   8    3    4 ar
   9    3    8 ar
  10    3   10 1
  11    4    5 ar
  12    4   11 1
  13    5    6 ar
  14    5   27 1
  15    6    7 ar
  16    6   28 1
  17    7    8 ar
  18    7   29 1
  19    9   10 1
  20    9   11 2
  21    9   12 1
  22   12   13 1
  23   12   30 1
  24   13   14 ar
  25   13   18 ar
  26   14   15 ar
  27   14   31 1
  28   15   16 ar
  29   15   32 1
  30   16   17 ar
  31   16   19 1
  32   17   18 ar
  33   17   33 1
  34   18   34 1
  35   19   20 2
  36   19   21 2
  37   22   35 1

#	End of record

