#	Name: ASD05790006
#	Creating user name:	WinNT
#	Creation time:	15. 06. 2019 21:03

#	Modifying user name:	WinNT
#	Modification time:	15. 06. 2019 21:03

#	Program:	/corina/corina34_cracker 3.40 0067  02.08.2006

@<TRIPOS>MOLECULE
ASD05790006
  48   51    0    0    0
SMALL
NO_CHARGES


@<TRIPOS>ATOM
   1 C1            -0.1753     1.4746    -0.5693 C.2     
   2 C2            -0.1532    -0.0033    -0.5732 C.ar    
   3 C3             0.8978    -0.6872    -1.1870 C.ar    
   4 C4             0.9126    -2.0664    -1.1866 C.ar    
   5 C5            -0.1113    -2.7722    -0.5795 C.ar    
   6 C6            -1.1557    -2.1008     0.0306 C.ar    
   7 C7            -1.1800    -0.7213     0.0419 C.ar    
   8 O8             0.7229     2.0973    -1.1015 O.2     
   9 N9            -1.1942     2.1318     0.0193 N.am    
  10 C10           -1.1619     3.5242     0.1191 C.ar    
  11 C11           -2.3411     4.2544     0.0191 C.ar    
  12 C12           -2.3128     5.6282     0.1176 C.ar    
  13 C13           -1.0980     6.2875     0.3182 C.ar    
  14 C14            0.0844     5.5512     0.4183 C.ar    
  15 C15            0.0486     4.1772     0.3242 C.ar    
  16 O16           -2.1303     8.5755     0.3440 O.3     
  17 C17           -1.0639     7.7607     0.4238 C.2     
  18 N18            0.0114     8.4874     0.6116 N.2     
  19 C19           -0.3501     9.7868     0.6554 C.2     
  20 C20           -1.6954     9.8425     0.4873 C.2     
  21 C21           -2.5437    11.0878     0.4648 C.3     
  22 F22           -2.6394    11.5631    -0.8475 F       
  23 F23           -3.8225    10.7898     0.9472 F       
  24 F24           -1.9565    12.0667     1.2736 F       
  25 C25            0.5581    10.9438     0.8516 C.ar    
  26 C26            1.6697    10.8270     1.6837 C.ar    
  27 C27            2.5110    11.9064     1.8626 C.ar    
  28 C28            2.2524    13.1025     1.2176 C.ar    
  29 C29            1.1504    13.2240     0.3905 C.ar    
  30 C30            0.3056    12.1493     0.1999 C.ar    
  31 C31            2.0460    -2.8064    -1.8491 C.3     
  32 H32            1.6973    -0.1375    -1.6615 H       
  33 H33           -0.0951    -3.8521    -0.5823 H       
  34 H34           -1.9516    -2.6576     0.5026 H       
  35 H35           -1.9936    -0.1982     0.5224 H       
  36 H36           -1.9499     1.6375     0.3736 H       
  37 H37           -3.2801     3.7440    -0.1364 H       
  38 H38           -3.2289     6.1948     0.0395 H       
  39 H39            1.0254     6.0580     0.5733 H       
  40 H40            0.9621     3.6069     0.4056 H       
  41 H41            1.8724     9.8938     2.1879 H       
  42 H42            3.3727    11.8171     2.5075 H       
  43 H43            2.9132    13.9447     1.3607 H       
  44 H44            0.9530    14.1603    -0.1103 H       
  45 H45           -0.5518    12.2438    -0.4499 H       
  46 H46            2.8407    -2.9789    -1.1234 H       
  47 H47            1.6842    -3.7630    -2.2261 H       
  48 H48            2.4328    -2.2124    -2.6772 H       
@<TRIPOS>BOND
   1    1    2 1
   2    1    8 2
   3    1    9 am
   4    2    3 ar
   5    2    7 ar
   6    3    4 ar
   7    3   32 1
   8    4    5 ar
   9    4   31 1
  10    5    6 ar
  11    5   33 1
  12    6    7 ar
  13    6   34 1
  14    7   35 1
  15    9   10 1
  16    9   36 1
  17   10   11 ar
  18   10   15 ar
  19   11   12 ar
  20   11   37 1
  21   12   13 ar
  22   12   38 1
  23   13   14 ar
  24   13   17 1
  25   14   15 ar
  26   14   39 1
  27   15   40 1
  28   16   17 1
  29   16   20 1
  30   17   18 2
  31   18   19 1
  32   19   20 2
  33   19   25 1
  34   20   21 1
  35   21   22 1
  36   21   23 1
  37   21   24 1
  38   25   26 ar
  39   25   30 ar
  40   26   27 ar
  41   26   41 1
  42   27   28 ar
  43   27   42 1
  44   28   29 ar
  45   28   43 1
  46   29   30 ar
  47   29   44 1
  48   30   45 1
  49   31   46 1
  50   31   47 1
  51   31   48 1

#	End of record

