#	Name: ASD03490105
#	Creating user name:	WinNT
#	Creation time:	15. 06. 2019 20:42

#	Modifying user name:	WinNT
#	Modification time:	15. 06. 2019 20:42

#	Program:	/corina/corina34_cracker 3.40 0067  02.08.2006

@<TRIPOS>MOLECULE
ASD03490105
  69   73    0    0    0
SMALL
NO_CHARGES


@<TRIPOS>ATOM
   1 C1            -2.1464     0.3604     0.4736 C.3     
   2 C2            -3.4357    -5.6259    -5.6179 C.3     
   3 C3            -1.3623    -4.5671    -6.5249 C.3     
   4 C4            -3.2688    -3.1378    -5.7731 C.3     
   5 C5            -1.4279    -3.1750     1.5913 C.ar    
   6 C6             7.0876   -12.0395     0.1009 C.ar    
   7 C7            -1.6814    -1.8161     1.6192 C.ar    
   8 C8            -1.3612    -3.8420     0.3835 C.ar    
   9 C9             6.1393   -11.4445    -0.7202 C.ar    
  10 C10            3.1502    -8.2170    -2.8011 C.ar    
  11 C11            2.9070    -9.2090    -0.6235 C.ar    
  12 C12            3.8767    -9.3136    -3.2199 C.ar    
  13 C13            3.6331   -10.3060    -1.0419 C.ar    
  14 C14            7.7554   -15.6296    -2.8748 C.ar    
  15 C15            8.0501   -15.0000    -1.7062 C.ar    
  16 C16           -1.8053    -1.7820    -0.7718 C.ar    
  17 C17           -0.9081    -5.2216    -3.6182 C.2     
  18 C18            6.1582   -13.9213    -3.4638 C.ar    
  19 C19            1.0271    -6.4792    -1.9043 C.2     
  20 N20            6.5272   -15.7676    -4.9540 N.pl3   
  21 N21            7.6806   -13.1636    -0.2270 N.ar    
  22 N22           -2.2524    -3.5435    -3.1675 N.2     
  23 N23            1.9262    -7.0479    -1.0769 N.am    
  24 N24            0.2719    -5.4494    -1.4735 N.am    
  25 N25            4.8565   -11.4735    -2.7657 N.pl3   
  26 O26            0.8972    -6.8953    -3.0394 O.2     
  27 C27           -1.8698    -1.1206     0.4388 C.ar    
  28 C28            6.8102   -15.0994    -3.7596 C.ar    
  29 C29            2.6633    -8.1615    -1.5018 C.ar    
  30 C30            4.1206   -10.3616    -2.3414 C.ar    
  31 C31           -1.5504    -3.1467    -0.8031 C.ar    
  32 C32            5.8002   -12.0436    -1.9231 C.ar    
  33 C33           -1.9083    -4.3800    -4.1133 C.2     
  34 C34           -0.6585    -4.8609    -2.3296 C.2     
  35 C35            7.4031   -13.7971    -1.3729 C.ar    
  36 C36            6.4473   -13.2554    -2.2653 C.ar    
  37 C37           -2.4916    -4.4275    -5.5020 C.3     
  38 N38           -1.4829    -3.8204    -2.0302 N.pl3   
  39 H39           -1.2042     0.9070     0.4327 H       
  40 H40           -2.7633     0.6350    -0.3820 H       
  41 H41           -2.6716     0.6103     1.3955 H       
  42 H42           -2.8820    -6.5447    -5.4248 H       
  43 H43           -4.2402    -5.5264    -4.8892 H       
  44 H44           -3.8575    -5.6602    -6.6224 H       
  45 H45           -1.7842    -4.6014    -7.5294 H       
  46 H46           -0.6897    -3.7133    -6.4423 H       
  47 H47           -0.8086    -5.4859    -6.3318 H       
  48 H48           -4.0732    -3.0384    -5.0444 H       
  49 H49           -2.5961    -2.2841    -5.6906 H       
  50 H50           -3.6906    -3.1721    -6.7776 H       
  51 H51           -1.2771    -3.7147     2.5146 H       
  52 H52            7.3477   -11.5618     1.0339 H       
  53 H53           -1.7326    -1.2968     2.5648 H       
  54 H54           -1.1629    -4.9034     0.3623 H       
  55 H55            5.6678   -10.5194    -0.4228 H       
  56 H56            2.9643    -7.4001    -3.4827 H       
  57 H57            2.5283    -9.1656     0.3870 H       
  58 H58            4.2550    -9.3569    -4.2305 H       
  59 H59            3.8227   -11.1207    -0.3587 H       
  60 H60            8.2572   -16.5532    -3.1229 H       
  61 H61            8.7814   -15.4239    -1.0339 H       
  62 H62           -1.9533    -1.2384    -1.6933 H       
  63 H63           -0.4228    -6.0197    -4.1604 H       
  64 H64            5.4293   -13.5156    -4.1497 H       
  65 H65            6.9855   -16.5956    -5.1669 H       
  66 H66            5.8726   -15.4033    -5.5702 H       
  67 H67            2.0632    -6.6864    -0.1872 H       
  68 H68            0.3755    -5.1175    -0.5679 H       
  69 H69            4.7070   -11.8457    -3.6489 H       
@<TRIPOS>BOND
   1    1   27 1
   2    1   39 1
   3    1   40 1
   4    1   41 1
   5    2   37 1
   6    2   42 1
   7    2   43 1
   8    2   44 1
   9    3   37 1
  10    3   45 1
  11    3   46 1
  12    3   47 1
  13    4   37 1
  14    4   48 1
  15    4   49 1
  16    4   50 1
  17    5    7 ar
  18    5    8 ar
  19    5   51 1
  20    6    9 ar
  21    6   21 ar
  22    6   52 1
  23    7   27 ar
  24    7   53 1
  25    8   31 ar
  26    8   54 1
  27    9   32 ar
  28    9   55 1
  29   10   12 ar
  30   10   29 ar
  31   10   56 1
  32   11   13 ar
  33   11   29 ar
  34   11   57 1
  35   12   30 ar
  36   12   58 1
  37   13   30 ar
  38   13   59 1
  39   14   15 ar
  40   14   28 ar
  41   14   60 1
  42   15   35 ar
  43   15   61 1
  44   16   27 ar
  45   16   31 ar
  46   16   62 1
  47   17   33 1
  48   17   34 2
  49   17   63 1
  50   18   28 ar
  51   18   36 ar
  52   18   64 1
  53   19   23 am
  54   19   24 am
  55   19   26 2
  56   20   28 1
  57   20   65 1
  58   20   66 1
  59   21   35 ar
  60   22   33 2
  61   22   38 1
  62   23   29 1
  63   23   67 1
  64   24   34 1
  65   24   68 1
  66   25   30 1
  67   25   32 1
  68   25   69 1
  69   31   38 1
  70   32   36 ar
  71   33   37 1
  72   34   38 1
  73   35   36 ar

#	End of record

