#	Name: ASD05490234
#	Creating user name:	WinNT
#	Creation time:	15. 06. 2019 21:01

#	Modifying user name:	WinNT
#	Modification time:	15. 06. 2019 21:01

#	Program:	/corina/corina34_cracker 3.40 0067  02.08.2006

@<TRIPOS>MOLECULE
ASD05490234
  65   69    0    0    0
SMALL
NO_CHARGES


@<TRIPOS>ATOM
   1 N1            -0.7347    -0.1314     0.9482 N.ar    
   2 C2            -0.4081    -1.2088     0.2514 C.ar    
   3 C3             0.9155    -1.5958     0.1169 C.ar    
   4 C4             1.9087    -0.8325     0.7265 C.ar    
   5 C5             1.5308     0.2975     1.4492 C.ar    
   6 C6             0.1807     0.6221     1.5424 C.ar    
   7 N7             3.2455    -1.2041     0.6122 N.3     
   8 C8             3.4673    -2.0060    -0.5985 C.3     
   9 C9             4.7721    -2.7501    -0.4761 C.ar    
  10 C10            5.0746    -3.4274     0.6901 C.ar    
  11 C11            6.2717    -4.1099     0.8024 C.ar    
  12 C12            7.1657    -4.1153    -0.2517 C.ar    
  13 C13            6.8626    -3.4385    -1.4186 C.ar    
  14 C14            5.6640    -2.7598    -1.5324 C.ar    
  15 N15            7.5524    -4.5863    -3.4463 N.3     
  16 C16            8.3233    -4.4942    -4.6998 C.3     
  17 C17            9.1542    -5.7888    -4.8218 C.3     
  18 C18            8.3794    -6.7874    -3.9222 C.3     
  19 C19            7.8872    -5.8633    -2.7806 C.3     
  20 N20           -0.2118     1.7462     2.2643 N.pl3   
  21 O21           -1.3838    -1.9448    -0.3392 O.3     
  22 C22           -2.7296    -1.4970    -0.1652 C.3     
  23 C23           -3.6813    -2.4454    -0.8970 C.3     
  24 N24            2.4949     1.1085     2.0736 N.am    
  25 C25            4.1246    -0.0273     0.6325 C.3     
  26 C26            3.7905     0.9926     1.6950 C.2     
  27 O27            4.6533     1.6852     2.1925 O.2     
  28 C28            7.8375    -3.4440    -2.5678 C.3     
  29 C29            5.5962    -0.2254     0.2742 C.3     
  30 C30            4.6593     0.4884    -0.7028 C.3     
  31 C31           -5.1223    -1.9659    -0.7106 C.3     
  32 C32           -6.0741    -2.9143    -1.4424 C.3     
  33 H33            1.1734    -2.4767    -0.4522 H       
  34 H34            2.6518    -2.7196    -0.7160 H       
  35 H35            3.5036    -1.3494    -1.4677 H       
  36 H36            4.3761    -3.4231     1.5138 H       
  37 H37            6.5085    -4.6386     1.7139 H       
  38 H38            8.1011    -4.6479    -0.1637 H       
  39 H39            5.4273    -2.2312    -2.4440 H       
  40 H40            7.6436    -4.4085    -5.5476 H       
  41 H41            8.9865    -3.6299    -4.6646 H       
  42 H42            9.1757    -6.1371    -5.8545 H       
  43 H43           10.1652    -5.6349    -4.4447 H       
  44 H44            7.5385    -7.2258    -4.4597 H       
  45 H45            9.0424    -7.5628    -3.5385 H       
  46 H46            8.6788    -5.7124    -2.0466 H       
  47 H47            7.0027    -6.2863    -2.3045 H       
  48 H48            0.4549     2.2999     2.7000 H       
  49 H49           -1.1519     1.9756     2.3315 H       
  50 H50           -2.9740    -1.4851     0.8970 H       
  51 H51           -2.8336    -0.4916    -0.5732 H       
  52 H52           -3.4369    -2.4573    -1.9592 H       
  53 H53           -3.5773    -3.4508    -0.4890 H       
  54 H54            2.2369     1.7401     2.7631 H       
  55 H55            7.7382    -2.5173    -3.1329 H       
  56 H56            8.8536    -3.5272    -2.1819 H       
  57 H57            6.3295     0.3828     0.8038 H       
  58 H58            5.9200    -1.2336     0.0155 H       
  59 H59            4.3666    -0.0502    -1.6041 H       
  60 H60            4.7761     1.5662    -0.8158 H       
  61 H61           -5.3667    -1.9540     0.3515 H       
  62 H62           -5.2263    -0.9605    -1.1187 H       
  63 H63           -7.1006    -2.5727    -1.3097 H       
  64 H64           -5.8296    -2.9262    -2.5046 H       
  65 H65           -5.9701    -3.9197    -1.0344 H       
@<TRIPOS>BOND
   1    1    2 ar
   2    1    6 ar
   3    2    3 ar
   4    2   21 1
   5    3    4 ar
   6    3   33 1
   7    4    5 ar
   8    4    7 1
   9    5    6 ar
  10    5   24 1
  11    6   20 1
  12    7    8 1
  13    7   25 1
  14    8    9 1
  15    8   34 1
  16    8   35 1
  17    9   10 ar
  18    9   14 ar
  19   10   11 ar
  20   10   36 1
  21   11   12 ar
  22   11   37 1
  23   12   13 ar
  24   12   38 1
  25   13   14 ar
  26   13   28 1
  27   14   39 1
  28   15   16 1
  29   15   19 1
  30   15   28 1
  31   16   17 1
  32   16   40 1
  33   16   41 1
  34   17   18 1
  35   17   42 1
  36   17   43 1
  37   18   19 1
  38   18   44 1
  39   18   45 1
  40   19   46 1
  41   19   47 1
  42   20   48 1
  43   20   49 1
  44   21   22 1
  45   22   23 1
  46   22   50 1
  47   22   51 1
  48   23   31 1
  49   23   52 1
  50   23   53 1
  51   24   26 am
  52   24   54 1
  53   25   26 1
  54   25   29 1
  55   25   30 1
  56   26   27 2
  57   28   55 1
  58   28   56 1
  59   29   30 1
  60   29   57 1
  61   29   58 1
  62   30   59 1
  63   30   60 1
  64   31   32 1
  65   31   61 1
  66   31   62 1
  67   32   63 1
  68   32   64 1
  69   32   65 1

#	End of record

