#	Name: ASD01948345
#	Creating user name:	WinNT
#	Creation time:	15. 06. 2019 20:14

#	Modifying user name:	WinNT
#	Modification time:	15. 06. 2019 20:14

#	Program:	/corina/corina34_cracker 3.40 0067  02.08.2006

@<TRIPOS>MOLECULE
ASD01948345
  49   51    0    0    0
SMALL
NO_CHARGES


@<TRIPOS>ATOM
   1 C1             0.3809     1.8518     0.0612 C.2     
   2 N2             0.4598     0.4962    -0.0671 N.am    
   3 C3             1.6482    -0.1350    -0.0599 C.2     
   4 C4             2.7677     1.9710     0.2107 C.2     
   5 C5             1.5000     2.6008     0.1992 C.2     
   6 C6             3.4629     3.8428    -1.7370 C.ar    
   7 C7             4.2435     3.6973    -0.5986 C.ar    
   8 N8             3.9240     2.7199     0.3504 N.pl3   
   9 C9             3.7807     4.8084    -2.6729 C.ar    
  10 C10            4.8761     5.6301    -2.4774 C.ar    
  11 C11            5.6573     5.4890    -1.3436 C.ar    
  12 C12            5.3447     4.5249    -0.4034 C.ar    
  13 N13            1.4038     3.9959     0.3309 N.am    
  14 S14           -0.0813     4.7284     0.3170 S.o2    
  15 C15           -0.8940     4.1328     1.8255 C.3     
  16 O16            1.6921    -1.3504    -0.1761 O.2     
  17 C17           -0.7701    -0.2860    -0.2147 C.3     
  18 F18            6.1070     4.3870     0.7034 F       
  19 Br19           5.3073     6.9490    -3.7620 Br      
  20 O20            0.2109     6.1150     0.4223 O.2     
  21 O21           -0.7218     4.2002    -0.8363 O.2     
  22 C22            2.8330     0.5941     0.0795 C.2     
  23 C23           -2.2965     4.6634     2.1289 C.3     
  24 C24           -2.1100     3.2193     1.6592 C.3     
  25 C25            0.0329     3.8666     3.0133 C.3     
  26 C26            0.6902     5.1771     3.4510 C.3     
  27 O27            1.6312     4.9130     4.4935 O.3     
  28 C28            4.1652    -0.1103     0.0878 C.3     
  29 F29            4.4849    -0.4878     1.3964 F       
  30 F30            4.0958    -1.2488    -0.7222 F       
  31 F31            5.1517     0.7518    -0.4030 F       
  32 H32           -0.5855     2.3337     0.0481 H       
  33 H33            2.6101     3.1988    -1.8933 H       
  34 H34            4.5126     2.5670     1.1062 H       
  35 H35            3.1732     4.9215    -3.5586 H       
  36 H36            6.5119     6.1320    -1.1936 H       
  37 H37            2.2073     4.5302     0.4300 H       
  38 H38           -1.0161    -0.3799    -1.2724 H       
  39 H39           -0.6237    -1.2775     0.2137 H       
  40 H40           -1.5854     0.2175     0.3047 H       
  41 H41           -2.5591     4.8225     3.1748 H       
  42 H42           -2.7310     5.3704     1.4221 H       
  43 H43           -2.4218     2.9763     0.6434 H       
  44 H44           -2.2499     2.4284     2.3960 H       
  45 H45           -0.5457     3.4562     3.8408 H       
  46 H46            0.8037     3.1538     2.7201 H       
  47 H47            1.2052     5.6266     2.6020 H       
  48 H48           -0.0743     5.8626     3.8166 H       
  49 H49            2.0870     5.7006     4.8206 H       
@<TRIPOS>BOND
   1    1    2 1
   2    1    5 2
   3    1   32 1
   4    2    3 am
   5    2   17 1
   6    3   22 1
   7    3   16 2
   8    4    5 1
   9    4    8 1
  10    4   22 2
  11    5   13 1
  12    6    7 ar
  13    6    9 ar
  14    6   33 1
  15    7    8 1
  16    7   12 ar
  17    8   34 1
  18    9   10 ar
  19    9   35 1
  20   10   11 ar
  21   10   19 1
  22   11   12 ar
  23   11   36 1
  24   12   18 1
  25   13   14 am
  26   13   37 1
  27   14   15 1
  28   14   20 2
  29   14   21 2
  30   15   23 1
  31   15   25 1
  32   15   24 1
  33   17   38 1
  34   17   39 1
  35   17   40 1
  36   22   28 1
  37   23   24 1
  38   23   41 1
  39   23   42 1
  40   24   43 1
  41   24   44 1
  42   25   26 1
  43   25   45 1
  44   25   46 1
  45   26   27 1
  46   26   47 1
  47   26   48 1
  48   27   49 1
  49   28   29 1
  50   28   30 1
  51   28   31 1

#	End of record

