#	Name: ASD06590074
#	Creating user name:	WinNT
#	Creation time:	15. 06. 2019 21:06

#	Modifying user name:	WinNT
#	Modification time:	15. 06. 2019 21:06

#	Program:	/corina/corina34_cracker 3.40 0067  02.08.2006

@<TRIPOS>MOLECULE
ASD06590074
 309  309    0    0    0
SMALL
NO_CHARGES


@<TRIPOS>ATOM
   1 C1            -8.3320   -14.5824    17.0745 C.2     
   2 O2            -7.9254   -15.1888    16.1061 O.2     
   3 N3            -6.0642   -14.7697    17.9177 N.am    
   4 C4            -7.3699   -14.1470    18.1495 C.3     
   5 C5            -7.2221   -12.6245    18.1155 C.3     
   6 C6            -6.2601   -12.1808    19.2194 C.3     
   7 O7            -6.7058   -12.2244    16.8446 O.3     
   8 C8           -11.3679   -13.3748    15.7468 C.2     
   9 O9           -11.1978   -12.3461    16.3664 O.2     
  10 N10           -9.6436   -14.2931    17.1865 N.am    
  11 C11          -10.5582   -14.6002    16.0840 C.3     
  12 C12          -11.4978   -15.7333    16.5014 C.3     
  13 C13          -10.6921   -16.9744    16.7873 C.2     
  14 O14           -9.4825   -16.9446    16.7040 O.2     
  15 N15          -11.3157   -18.1173    17.1357 N.am    
  16 C16          -14.3659   -12.6472    13.7857 C.2     
  17 O17          -14.6092   -13.8234    13.6176 O.2     
  18 N18          -12.2812   -13.4219    14.7568 N.am    
  19 C19          -13.0683   -12.2306    14.4290 C.3     
  20 C20          -12.2787   -11.3484    13.4598 C.3     
  21 C21          -17.3270   -10.8922    12.4347 C.2     
  22 O22          -16.8931    -9.7891    12.6914 O.2     
  23 N23          -15.2559   -11.7127    13.3972 N.am    
  24 C24          -16.5173   -12.1177    12.7719 C.3     
  25 C25          -20.7822   -10.1934    11.4670 C.2     
  26 O26          -21.1321   -11.3346    11.6819 O.2     
  27 N27          -18.5333   -11.0220    11.8478 N.am    
  28 C28          -19.3205    -9.8307    11.5200 C.3     
  29 C29          -18.8802    -9.2871    10.1593 C.3     
  30 C30          -17.4315    -8.8032    10.2479 C.3     
  31 C31          -16.9912    -8.2595     8.8872 C.3     
  32 N32          -15.6040    -7.7962     8.9720 N.pl3   
  33 C33          -14.9883    -7.2632     7.8644 C.2     
  34 N34          -13.7541    -6.8510     7.9398 N.2     
  35 N35          -15.6744    -7.1650     6.6770 N.pl3   
  36 C36          -23.8487    -8.6289    10.2373 C.2     
  37 O37          -23.2398    -7.7295     9.6978 O.2     
  38 N38          -21.7008    -9.2495    11.1808 N.am    
  39 C39          -23.1218    -9.6021    11.1293 C.3     
  40 C40          -23.7136    -9.5419    12.5389 C.3     
  41 O41          -23.6753    -8.1950    13.0145 O.3     
  42 C42          -26.3092    -6.6266     9.7933 C.2     
  43 O43          -26.0759    -6.4793    10.9743 O.2     
  44 N44          -25.1756    -8.7582    10.0392 N.am    
  45 C45          -25.8630    -7.8814     9.0879 C.3     
  46 C46          -27.0830    -8.6062     8.5160 C.3     
  47 C47          -26.6286    -9.7985     7.7141 C.2     
  48 O48          -25.4501    -9.9857     7.5248 O.2     
  49 O49          -27.5333   -10.6526     7.2102 O.3     
  50 C50          -28.5787    -3.8540     9.0686 C.2     
  51 O51          -28.9007    -4.2866     7.9822 O.2     
  52 N52          -26.9674    -5.6682     9.1117 N.am    
  53 C53          -27.4012    -4.4484     9.7974 C.3     
  54 C54          -26.2517    -3.4388     9.8182 C.3     
  55 C55          -25.0506    -4.0483    10.5439 C.3     
  56 O56          -25.8818    -3.1105     8.4775 O.3     
  57 C57          -30.7213    -0.9090     9.3826 C.2     
  58 O58          -29.9549    -0.3639    10.1483 O.2     
  59 N59          -29.2740    -2.8418     9.6240 N.am    
  60 C60          -30.4842    -2.3387     8.9694 C.3     
  61 C61          -31.6822    -3.1950     9.3848 C.3     
  62 C62          -31.4987    -4.6191     8.8566 C.3     
  63 C63          -32.6967    -5.4754     9.2720 C.3     
  64 N64          -32.5210    -6.8391     8.7663 N.pl3   
  65 C65          -33.4779    -7.7939     9.0171 C.2     
  66 N66          -33.3215    -9.0072     8.5672 N.2     
  67 N67          -34.5996    -7.4689     9.7425 N.pl3   
  68 C68          -33.4813     1.4787     9.1701 C.2     
  69 O69          -34.2569     0.6324     8.7786 O.2     
  70 N70          -31.7851    -0.2360     8.9010 N.am    
  71 C71          -32.0157     1.1539     9.3027 C.3     
  72 C72          -31.2032     2.0865     8.4021 C.3     
  73 C73          -35.5248     4.5097     9.1618 C.2     
  74 O74          -34.5515     5.2328     9.1328 O.2     
  75 N75          -33.9301     2.7095     9.4865 N.am    
  76 C76          -35.3549     3.0251     9.3576 C.3     
  77 C77          -36.0904     2.5906    10.6269 C.3     
  78 C78          -36.0235     1.0678    10.7590 C.3     
  79 C79          -36.7480     0.6398    12.0093 C.2     
  80 O80          -37.2667     1.4710    12.7242 O.2     
  81 N81          -36.8195    -0.6665    12.3329 N.am    
  82 C82          -38.2944     6.8917     9.2971 C.2     
  83 O83          -39.0583     6.0634     9.7457 O.2     
  84 N84          -36.7582     5.0338     9.0189 N.am    
  85 C85          -36.9234     6.4769     8.8286 C.3     
  86 C86          -36.7667     6.8170     7.3452 C.3     
  87 C87          -35.3567     6.5158     6.9069 C.ar    
  88 C88          -35.0392     5.2629     6.4160 C.ar    
  89 C89          -33.7472     4.9842     6.0141 C.ar    
  90 C90          -32.7680     5.9629     6.1029 C.ar    
  91 O91          -31.4964     5.6914     5.7077 O.3     
  92 C92          -33.0892     7.2195     6.5954 C.ar    
  93 C93          -34.3838     7.4947     6.9912 C.ar    
  94 C94          -40.4189     9.8473     8.9590 C.2     
  95 O95          -39.6744    10.3586     8.1496 O.2     
  96 N96          -38.6716     8.1832     9.2174 N.am    
  97 C97          -40.0043     8.5864     9.6728 C.3     
  98 C98          -39.9725     8.8412    11.1811 C.3     
  99 C99          -39.6737     7.5315    11.9134 C.3     
 100 C100         -39.6419     7.7863    13.4217 C.3     
 101 N101         -39.3557     6.5322    14.1228 N.pl3   
 102 C102         -39.2774     6.5144    15.4953 C.2     
 103 N103         -39.0229     5.3986    16.1191 N.2     
 104 N104         -39.4677     7.6734    16.2098 N.pl3   
 105 C105         -43.0269    12.3765     9.3649 C.2     
 106 O106         -43.3736    11.9272    10.4368 O.2     
 107 N107         -41.6170    10.4066     9.2201 N.am    
 108 C108         -42.0200    11.6322     8.5262 C.3     
 109 C109         -42.6463    11.2723     7.1774 C.3     
 110 C110         -41.5882    10.6281     6.2795 C.3     
 111 C111         -42.2145    10.2682     4.9307 C.3     
 112 C112         -41.1564     9.6240     4.0328 C.3     
 113 N113         -41.7577     9.2784     2.7378 N.3     
 114 C114         -45.3842    15.1209     8.9307 C.2     
 115 O115         -45.1149    15.3414     7.7689 O.2     
 116 N116         -43.5419    13.5412     8.9239 N.am    
 117 C117         -44.4360    14.3194     9.7849 C.3     
 118 C118         -43.6084    15.2673    10.6553 C.3     
 119 C119         -44.5210    15.9502    11.6759 C.3     
 120 C120         -45.0717    14.9046    12.6477 C.3     
 121 C121         -43.7224    16.9984    12.4533 C.3     
 122 C122         -46.9285    17.8886     8.7798 C.2     
 123 O123         -45.9651    18.1516     9.4600 O.2     
 124 N124         -46.5314    15.5926     9.4578 N.am    
 125 C125         -47.4004    16.4623     8.6612 C.3     
 126 C126         -48.8375    16.3562     9.1752 C.3     
 127 C127         -49.3537    14.9327     8.9560 C.3     
 128 C128         -50.7296    14.7830     9.6084 C.3     
 129 C129         -49.4682    14.6570     7.4554 C.3     
 130 O130         -47.5784    18.8668     8.1298 O.3     
 131 C131          -5.2154   -14.9585    18.9474 C.2     
 132 O132          -5.5324   -14.6128    20.0659 O.2     
 133 C133          11.0026   -20.8238    26.2798 C.3     
 134 C134           9.6390   -20.1735    26.5219 C.3     
 135 C135           8.8776   -20.0774    25.1983 C.3     
 136 C136           7.5140   -19.4271    25.4403 C.3     
 137 C137           6.7526   -19.3310    24.1167 C.3     
 138 C138           5.3890   -18.6807    24.3588 C.3     
 139 C139           4.6277   -18.5846    23.0352 C.3     
 140 C140           3.2641   -17.9343    23.2773 C.3     
 141 C141           2.5027   -17.8382    21.9536 C.3     
 142 C142           1.1391   -17.1879    22.1957 C.3     
 143 C143           0.3777   -17.0918    20.8721 C.3     
 144 C144          -0.9859   -16.4415    21.1142 C.3     
 145 C145          -1.7473   -16.3454    19.7905 C.3     
 146 C146          -3.1109   -15.6951    20.0326 C.3     
 147 C147          -3.8723   -15.5990    18.7090 C.3     
 148 H148          -5.8107   -15.0461    17.0232 H       
 149 H149          -7.7508   -14.4534    19.1238 H       
 150 H150          -8.1959   -12.1613    18.2743 H       
 151 H151          -5.2603   -12.5572    19.0030 H       
 152 H152          -6.2365   -11.0920    19.2647 H       
 153 H153          -6.5982   -12.5770    20.1769 H       
 154 H154          -7.2657   -12.4735    16.0965 H       
 155 H155          -9.9820   -13.8815    17.9970 H       
 156 H156          -9.9837   -14.9078    15.2103 H       
 157 H157         -12.0444   -15.4405    17.3978 H       
 158 H158         -12.2033   -15.9358    15.6956 H       
 159 H159         -12.2831   -18.1410    17.2023 H       
 160 H160         -10.7971   -18.9161    17.3197 H       
 161 H161         -12.4172   -14.2446    14.2612 H       
 162 H162         -13.2779   -11.6714    15.3408 H       
 163 H163         -12.0691   -11.9076    12.5480 H       
 164 H164         -12.8644   -10.4620    13.2159 H       
 165 H165         -11.3402   -11.0471    13.9251 H       
 166 H166         -15.0613   -10.7719    13.5317 H       
 167 H167         -17.0798   -12.7461    13.4623 H       
 168 H168         -16.3077   -12.6769    11.8600 H       
 169 H169         -18.8804   -11.9042    11.6424 H       
 170 H170         -19.1625    -9.0693    12.2838 H       
 171 H171         -18.9545   -10.0764     9.4113 H       
 172 H172         -19.5244    -8.4551     9.8747 H       
 173 H173         -17.3571    -8.0138    10.9959 H       
 174 H174         -16.7873    -9.6352    10.5325 H       
 175 H175         -17.0655    -9.0489     8.1392 H       
 176 H176         -17.6354    -7.4276     8.6026 H       
 177 H177         -15.1199    -7.8655     9.8097 H       
 178 H178         -13.3197    -6.4750     7.1583 H       
 179 H179         -16.5929    -7.4718     6.6209 H       
 180 H180         -15.2400    -6.7890     5.8955 H       
 181 H181         -21.4210    -8.3368    11.0090 H       
 182 H182         -23.2316   -10.6111    10.7318 H       
 183 H183         -24.7464    -9.8894    12.5144 H       
 184 H184         -23.1316   -10.1791    13.2048 H       
 185 H185         -24.0355    -8.0818    13.9048 H       
 186 H186         -25.6754    -9.4318    10.5264 H       
 187 H187         -25.1826    -7.6201     8.2774 H       
 188 H188         -27.7231    -8.9401     9.3326 H       
 189 H189         -27.6406    -7.9263     7.8719 H       
 190 H190         -27.1939   -11.4026     6.7028 H       
 191 H191         -27.1539    -5.7860     8.1671 H       
 192 H192         -27.6910    -4.6899    10.8200 H       
 193 H193         -26.5707    -2.5357    10.3386 H       
 194 H194         -24.6670    -4.8903     9.9678 H       
 195 H195         -24.2699    -3.2951    10.6504 H       
 196 H196         -25.3592    -4.3936    11.5306 H       
 197 H197         -26.5964    -2.7186     7.9570 H       
 198 H198         -28.9731    -2.4465    10.4571 H       
 199 H199         -30.3597    -2.3884     7.8877 H       
 200 H200         -31.7534    -3.2171    10.4722 H       
 201 H201         -32.5952    -2.7683     8.9695 H       
 202 H202         -31.4275    -4.5971     7.7692 H       
 203 H203         -30.5857    -5.0458     9.2719 H       
 204 H204         -32.7679    -5.4975    10.3594 H       
 205 H205         -33.6097    -5.0487     8.8567 H       
 206 H206         -31.7296    -7.0684     8.2545 H       
 207 H207         -33.9966    -9.6808     8.7442 H       
 208 H208         -34.7160    -6.5660    10.0774 H       
 209 H209         -35.2747    -8.1426     9.9195 H       
 210 H210         -32.3981    -0.6718     8.2886 H       
 211 H211         -31.7059     1.2888    10.3390 H       
 212 H212         -31.5129     1.9516     7.3657 H       
 213 H213         -31.3747     3.1206     8.7009 H       
 214 H214         -30.1431     1.8516     8.4980 H       
 215 H215         -33.3098     3.3863     9.7995 H       
 216 H216         -35.7681     2.4958     8.4990 H       
 217 H217         -35.6199     3.0517    11.4953 H       
 218 H218         -37.1325     2.9049    10.5686 H       
 219 H219         -36.4940     0.6067     9.8906 H       
 220 H220         -34.9815     0.7536    10.8174 H       
 221 H221         -36.4046    -1.3313    11.7611 H       
 222 H222         -37.2858    -0.9420    13.1376 H       
 223 H223         -37.5366     4.4554     9.0421 H       
 224 H224         -36.1662     7.0084     9.4051 H       
 225 H225         -37.4648     6.2187     6.7596 H       
 226 H226         -36.9770     7.8753     7.1908 H       
 227 H227         -35.8019     4.5013     6.3470 H       
 228 H228         -33.4996     4.0051     5.6313 H       
 229 H229         -31.3247     5.8834     4.7757 H       
 230 H230         -32.3286     7.9830     6.6659 H       
 231 H231         -34.6354     8.4741     7.3706 H       
 232 H232         -38.0606     8.8457     8.8586 H       
 233 H233         -40.7188     7.7930     9.4533 H       
 234 H234         -39.1958     9.5709    11.4100 H       
 235 H235         -40.9395     9.2261    11.5050 H       
 236 H236         -40.4504     6.8018    11.6844 H       
 237 H237         -38.7067     7.1466    11.5894 H       
 238 H238         -38.8652     8.5159    13.6506 H       
 239 H239         -40.6088     8.1712    13.7456 H       
 240 H240         -39.2215     5.7144    13.6187 H       
 241 H241         -38.9676     5.3860    17.0875 H       
 242 H242         -39.6571     8.5038    15.7455 H       
 243 H243         -39.4124     7.6609    17.1781 H       
 244 H244         -42.2125     9.9975     9.8674 H       
 245 H245         -41.1455    12.2623     8.3641 H       
 246 H246         -43.4664    10.5713     7.3331 H       
 247 H247         -43.0262    12.1759     6.7006 H       
 248 H248         -40.7682    11.3291     6.1238 H       
 249 H249         -41.2083     9.7246     6.7563 H       
 250 H250         -43.0345     9.5672     5.0864 H       
 251 H251         -42.5944    11.1717     4.4539 H       
 252 H252         -40.3363    10.3249     3.8771 H       
 253 H253         -40.7765     8.7204     4.5096 H       
 254 H254         -42.1746    10.0889     2.3049 H       
 255 H255         -41.0784     8.8510     2.1263 H       
 256 H256         -43.3207    13.8642     8.0364 H       
 257 H257         -45.0049    13.6435    10.4233 H       
 258 H258         -42.8381    14.7007    11.1786 H       
 259 H259         -43.1388    16.0225    10.0251 H       
 260 H260         -45.3479    16.4349    11.1568 H       
 261 H261         -44.2503    14.4690    13.2165 H       
 262 H262         -45.7756    15.3792    13.3314 H       
 263 H263         -45.5816    14.1209    12.0875 H       
 264 H264         -43.3300    17.7433    11.7609 H       
 265 H265         -44.3726    17.4850    13.1803 H       
 266 H266         -42.8955    16.5137    12.9724 H       
 267 H267         -46.7816    15.3562    10.3647 H       
 268 H268         -47.3644    16.1533     7.6165 H       
 269 H269         -48.8612    16.5914    10.2392 H       
 270 H270         -49.4700    17.0594     8.6334 H       
 271 H271         -48.6598    14.2215     9.4042 H       
 272 H272         -51.0589    13.7470     9.5283 H       
 273 H273         -50.6656    15.0636    10.6597 H       
 274 H274         -51.4443    15.4316     9.1020 H       
 275 H275         -48.4881    14.7637     6.9906 H       
 276 H276         -49.8360    13.6429     7.2993 H       
 277 H277         -50.1621    15.3682     7.0073 H       
 278 H278         -47.2386    19.7658     8.2364 H       
 279 H279          11.5450   -20.8923    27.2228 H       
 280 H280          10.8606   -21.8234    25.8689 H       
 281 H281          11.5736   -20.2191    25.5753 H       
 282 H282           9.0680   -20.7782    27.2264 H       
 283 H283           9.7810   -19.1740    26.9328 H       
 284 H284           9.4486   -19.4727    24.4937 H       
 285 H285           8.7356   -21.0770    24.7874 H       
 286 H286           6.9430   -20.0318    26.1449 H       
 287 H287           7.6560   -18.4276    25.8512 H       
 288 H288           7.3236   -18.7263    23.4122 H       
 289 H289           6.6107   -20.3306    23.7059 H       
 290 H290           4.8180   -19.2854    25.0633 H       
 291 H291           5.5310   -17.6812    24.7697 H       
 292 H292           5.1986   -17.9799    22.3306 H       
 293 H293           4.4857   -19.5842    22.6243 H       
 294 H294           2.6931   -18.5390    23.9818 H       
 295 H295           3.4060   -16.9347    23.6881 H       
 296 H296           3.0737   -17.2335    21.2491 H       
 297 H297           2.3607   -18.8378    21.5428 H       
 298 H298           0.5681   -17.7926    22.9003 H       
 299 H299           1.2811   -16.1883    22.6066 H       
 300 H300           0.9487   -16.4871    20.1675 H       
 301 H301           0.2357   -18.0914    20.4612 H       
 302 H302          -1.5569   -17.0462    21.8187 H       
 303 H303          -0.8439   -15.4419    21.5250 H       
 304 H304          -1.1763   -15.7407    19.0860 H       
 305 H305          -1.8893   -17.3450    19.3797 H       
 306 H306          -3.6819   -16.2998    20.7372 H       
 307 H307          -2.9689   -14.6955    20.4435 H       
 308 H308          -4.0142   -16.5986    18.2981 H       
 309 H309          -3.3013   -14.9943    18.0044 H       
@<TRIPOS>BOND
   1    1    2 2
   2    1    4 1
   3    1   10 am
   4    3  131 am
   5    3    4 1
   6    3  148 1
   7    4    5 1
   8    4  149 1
   9    5    6 1
  10    5    7 1
  11    5  150 1
  12    6  151 1
  13    6  152 1
  14    6  153 1
  15    7  154 1
  16    8    9 2
  17    8   11 1
  18    8   18 am
  19   10   11 1
  20   10  155 1
  21   11   12 1
  22   11  156 1
  23   12   13 1
  24   12  157 1
  25   12  158 1
  26   13   14 2
  27   13   15 am
  28   15  159 1
  29   15  160 1
  30   16   17 2
  31   16   19 1
  32   16   23 am
  33   18   19 1
  34   18  161 1
  35   19   20 1
  36   19  162 1
  37   20  163 1
  38   20  164 1
  39   20  165 1
  40   21   22 2
  41   21   24 1
  42   21   27 am
  43   23   24 1
  44   23  166 1
  45   24  167 1
  46   24  168 1
  47   25   26 2
  48   25   28 1
  49   25   38 am
  50   27   28 1
  51   27  169 1
  52   28   29 1
  53   28  170 1
  54   29   30 1
  55   29  171 1
  56   29  172 1
  57   30   31 1
  58   30  173 1
  59   30  174 1
  60   31   32 1
  61   31  175 1
  62   31  176 1
  63   32   33 1
  64   32  177 1
  65   33   34 2
  66   33   35 1
  67   34  178 1
  68   35  179 1
  69   35  180 1
  70   36   37 2
  71   36   39 1
  72   36   44 am
  73   38   39 1
  74   38  181 1
  75   39   40 1
  76   39  182 1
  77   40   41 1
  78   40  183 1
  79   40  184 1
  80   41  185 1
  81   42   43 2
  82   42   45 1
  83   42   52 am
  84   44   45 1
  85   44  186 1
  86   45   46 1
  87   45  187 1
  88   46   47 1
  89   46  188 1
  90   46  189 1
  91   47   48 2
  92   47   49 1
  93   49  190 1
  94   50   51 2
  95   50   53 1
  96   50   59 am
  97   52   53 1
  98   52  191 1
  99   53   54 1
 100   53  192 1
 101   54   55 1
 102   54   56 1
 103   54  193 1
 104   55  194 1
 105   55  195 1
 106   55  196 1
 107   56  197 1
 108   57   58 2
 109   57   60 1
 110   57   70 am
 111   59   60 1
 112   59  198 1
 113   60   61 1
 114   60  199 1
 115   61   62 1
 116   61  200 1
 117   61  201 1
 118   62   63 1
 119   62  202 1
 120   62  203 1
 121   63   64 1
 122   63  204 1
 123   63  205 1
 124   64   65 1
 125   64  206 1
 126   65   66 2
 127   65   67 1
 128   66  207 1
 129   67  208 1
 130   67  209 1
 131   68   69 2
 132   68   71 1
 133   68   75 am
 134   70   71 1
 135   70  210 1
 136   71   72 1
 137   71  211 1
 138   72  212 1
 139   72  213 1
 140   72  214 1
 141   73   74 2
 142   73   76 1
 143   73   84 am
 144   75   76 1
 145   75  215 1
 146   76   77 1
 147   76  216 1
 148   77   78 1
 149   77  217 1
 150   77  218 1
 151   78   79 1
 152   78  219 1
 153   78  220 1
 154   79   80 2
 155   79   81 am
 156   81  221 1
 157   81  222 1
 158   82   83 2
 159   82   85 1
 160   82   96 am
 161   84   85 1
 162   84  223 1
 163   85   86 1
 164   85  224 1
 165   86   87 1
 166   86  225 1
 167   86  226 1
 168   87   88 ar
 169   87   93 ar
 170   88   89 ar
 171   88  227 1
 172   89   90 ar
 173   89  228 1
 174   90   91 1
 175   90   92 ar
 176   91  229 1
 177   92   93 ar
 178   92  230 1
 179   93  231 1
 180   94   95 2
 181   94   97 1
 182   94  107 am
 183   96   97 1
 184   96  232 1
 185   97   98 1
 186   97  233 1
 187   98   99 1
 188   98  234 1
 189   98  235 1
 190   99  100 1
 191   99  236 1
 192   99  237 1
 193  100  101 1
 194  100  238 1
 195  100  239 1
 196  101  102 1
 197  101  240 1
 198  102  103 2
 199  102  104 1
 200  103  241 1
 201  104  242 1
 202  104  243 1
 203  105  106 2
 204  105  108 1
 205  105  116 am
 206  107  108 1
 207  107  244 1
 208  108  109 1
 209  108  245 1
 210  109  110 1
 211  109  246 1
 212  109  247 1
 213  110  111 1
 214  110  248 1
 215  110  249 1
 216  111  112 1
 217  111  250 1
 218  111  251 1
 219  112  113 1
 220  112  252 1
 221  112  253 1
 222  113  254 1
 223  113  255 1
 224  114  115 2
 225  114  117 1
 226  114  124 am
 227  116  117 1
 228  116  256 1
 229  117  118 1
 230  117  257 1
 231  118  119 1
 232  118  258 1
 233  118  259 1
 234  119  120 1
 235  119  121 1
 236  119  260 1
 237  120  261 1
 238  120  262 1
 239  120  263 1
 240  121  264 1
 241  121  265 1
 242  121  266 1
 243  122  123 2
 244  122  125 1
 245  122  130 1
 246  124  125 1
 247  124  267 1
 248  125  126 1
 249  125  268 1
 250  126  127 1
 251  126  269 1
 252  126  270 1
 253  127  128 1
 254  127  129 1
 255  127  271 1
 256  128  272 1
 257  128  273 1
 258  128  274 1
 259  129  275 1
 260  129  276 1
 261  129  277 1
 262  130  278 1
 263  131  132 2
 264  131  147 1
 265  133  134 1
 266  133  279 1
 267  133  280 1
 268  133  281 1
 269  134  135 1
 270  134  282 1
 271  134  283 1
 272  135  136 1
 273  135  284 1
 274  135  285 1
 275  136  137 1
 276  136  286 1
 277  136  287 1
 278  137  138 1
 279  137  288 1
 280  137  289 1
 281  138  139 1
 282  138  290 1
 283  138  291 1
 284  139  140 1
 285  139  292 1
 286  139  293 1
 287  140  141 1
 288  140  294 1
 289  140  295 1
 290  141  142 1
 291  141  296 1
 292  141  297 1
 293  142  143 1
 294  142  298 1
 295  142  299 1
 296  143  144 1
 297  143  300 1
 298  143  301 1
 299  144  145 1
 300  144  302 1
 301  144  303 1
 302  145  146 1
 303  145  304 1
 304  145  305 1
 305  146  147 1
 306  146  306 1
 307  146  307 1
 308  147  308 1
 309  147  309 1

#	End of record

