#	Name: ASD01885361
#	Creating user name:	WinNT
#	Creation time:	15. 06. 2019 19:49

#	Modifying user name:	WinNT
#	Modification time:	15. 06. 2019 19:49

#	Program:	/corina/corina34_cracker 3.40 0067  02.08.2006

@<TRIPOS>MOLECULE
ASD01885361
  51   54    0    0    0
SMALL
NO_CHARGES


@<TRIPOS>ATOM
   1 C1            -0.0164     1.3564     0.0095 C.ar    
   2 C2             0.0021    -0.0041     0.0020 C.ar    
   3 C3             1.2053    -0.7064    -0.0128 C.ar    
   4 C4             2.3988    -0.0484    -0.0201 C.ar    
   5 C5             2.4185     1.3521    -0.0133 C.ar    
   6 C6             1.1965     2.0715     0.0018 C.ar    
   7 C7             3.6407     2.0709    -0.0206 C.ar    
   8 C8             3.5788     3.4577    -0.0130 C.ar    
   9 C9             2.3314     4.0920     0.0013 C.ar    
  10 N10            1.2050     3.4047     0.0084 N.ar    
  11 C11            4.9419     1.3646    -0.0352 C.ar    
  12 C12            2.2741     5.5737     0.0097 C.2     
  13 O13            3.3021     6.2215     0.0041 O.2     
  14 N14            1.0818     6.2019     0.0235 N.am    
  15 C15           -1.2997    -0.7633     0.0104 C.3     
  16 N16           -1.7358    -1.0026    -1.3718 N.3     
  17 C17           -2.8682    -1.9384    -1.4122 C.3     
  18 C18           -3.3425    -2.0990    -2.8585 C.3     
  19 N19           -2.2297    -2.5874    -3.6848 N.3     
  20 C20           -1.0973    -1.6516    -3.6444 C.3     
  21 C21           -0.6231    -1.4910    -2.1982 C.3     
  22 C22           -4.4952    -3.1038    -2.9091 C.3     
  23 F23           -5.5533    -2.6398    -2.1203 F       
  24 F24           -4.9284    -3.2504    -4.2312 F       
  25 F25           -4.0577    -4.3402    -2.4219 F       
  26 C26            5.9190     1.7169    -0.9667 C.ar    
  27 C27            7.1294     1.0560    -0.9763 C.ar    
  28 C28            7.3760     0.0433    -0.0627 C.ar    
  29 C29            6.4086    -0.3104     0.8646 C.ar    
  30 C30            5.1971     0.3484     0.8861 C.ar    
  31 F31            8.5631    -0.6015    -0.0764 F       
  32 H32           -0.9577     1.8858     0.0168 H       
  33 H33            1.1920    -1.7863    -0.0181 H       
  34 H34            3.3248    -0.6041    -0.0309 H       
  35 H35            4.4866     4.0427    -0.0179 H       
  36 H36            0.2612     5.6848     0.0279 H       
  37 H37            1.0443     7.1712     0.0290 H       
  38 H38           -1.1602    -1.7179     0.5178 H       
  39 H39           -2.0569    -0.1804     0.5346 H       
  40 H40           -2.5538    -2.9067    -1.0229 H       
  41 H41           -3.6839    -1.5487    -0.8032 H       
  42 H42           -3.6824    -1.1357    -3.2388 H       
  43 H43           -1.9451    -3.5120    -3.3982 H       
  44 H44           -0.2817    -2.0413    -4.2535 H       
  45 H45           -1.4118    -0.6832    -4.0337 H       
  46 H46            0.1981    -0.7751    -2.1621 H       
  47 H47           -0.2831    -2.4542    -1.8178 H       
  48 H48            5.7277     2.5056    -1.6792 H       
  49 H49            7.8863     1.3277    -1.6972 H       
  50 H50            6.6053    -1.1004     1.5743 H       
  51 H51            4.4456     0.0752     1.6120 H       
@<TRIPOS>BOND
   1    1    2 ar
   2    1    6 ar
   3    1   32 1
   4    2    3 ar
   5    2   15 1
   6    3    4 ar
   7    3   33 1
   8    4    5 ar
   9    4   34 1
  10    5    7 ar
  11    5    6 ar
  12    6   10 ar
  13    7    8 ar
  14    7   11 1
  15    8    9 ar
  16    8   35 1
  17    9   10 ar
  18    9   12 1
  19   11   26 ar
  20   11   30 ar
  21   12   13 2
  22   12   14 am
  23   14   36 1
  24   14   37 1
  25   15   16 1
  26   15   38 1
  27   15   39 1
  28   16   17 1
  29   16   21 1
  30   17   18 1
  31   17   40 1
  32   17   41 1
  33   18   19 1
  34   18   22 1
  35   18   42 1
  36   19   20 1
  37   19   43 1
  38   20   21 1
  39   20   44 1
  40   20   45 1
  41   21   46 1
  42   21   47 1
  43   22   23 1
  44   22   24 1
  45   22   25 1
  46   26   27 ar
  47   26   48 1
  48   27   28 ar
  49   27   49 1
  50   28   29 ar
  51   28   31 1
  52   29   30 ar
  53   29   50 1
  54   30   51 1

#	End of record

