#	Name: ASD08150581
#	Creating user name:	WinNT
#	Creation time:	15. 06. 2019 21:16

#	Modifying user name:	WinNT
#	Modification time:	15. 06. 2019 21:16

#	Program:	/corina/corina34_cracker 3.40 0067  02.08.2006

@<TRIPOS>MOLECULE
ASD08150581
  44   48    0    0    0
SMALL
NO_CHARGES


@<TRIPOS>ATOM
   1 N1             0.1610     1.5528     1.9418 N.am    
   2 C2             0.2499     0.2976     2.4228 C.2     
   3 C3             1.4675    -0.4111     2.3754 C.2     
   4 C4             2.5734     0.1661     1.8403 C.2     
   5 C5             2.4834     1.4864     1.3329 C.ar    
   6 C6             3.6000     2.1311     0.7671 C.ar    
   7 N7             3.5142     3.3491     0.2997 N.ar    
   8 C8             2.3708     4.0504     0.3299 C.ar    
   9 C9             1.1966     3.4805     0.8807 C.ar    
  10 C10            1.2562     2.1643     1.3959 C.ar    
  11 C11           -0.0034     5.5069     0.3945 C.ar    
  12 C12            1.1625     6.0639    -0.1495 C.ar    
  13 C13            2.3238     5.3570    -0.1833 C.ar    
  14 O14           -0.7361    -0.2325     2.9061 O.2     
  15 C15           -1.0619     2.2338     1.9957 C.ar    
  16 C16           -1.9735     2.1108     0.9540 C.ar    
  17 C17           -3.1793     2.7840     1.0098 C.ar    
  18 C18           -3.4787     3.5801     2.1023 C.ar    
  19 C19           -2.5709     3.7041     3.1411 C.ar    
  20 C20           -1.3675     3.0285     3.0926 C.ar    
  21 C21            0.0103     4.2202     0.9082 C.ar    
  22 C22           -1.2573     6.2987     0.4201 C.ar    
  23 C23           -2.4855     5.6823     0.1985 C.ar    
  24 Cl24          -1.5978     1.1130    -0.4160 Cl      
  25 F25           -4.6579     4.2373     2.1550 F       
  26 N26           -3.6026     6.3816     0.2207 N.ar    
  27 C27           -3.6041     7.6856     0.4521 C.ar    
  28 C28           -2.4144     8.3714     0.6824 C.ar    
  29 C29           -1.2224     7.6751     0.6731 C.ar    
  30 N30           -4.8083     8.3783     0.4646 N.pl3   
  31 H31            1.5208    -1.4164     2.7664 H       
  32 H32            3.5086    -0.3728     1.8021 H       
  33 H33            4.5448     1.6100     0.7187 H       
  34 H34            1.1380     7.0676    -0.5475 H       
  35 H35            3.2127     5.8018    -0.6057 H       
  36 H36           -3.8883     2.6892     0.2006 H       
  37 H37           -2.8064     4.3263     3.9919 H       
  38 H38           -0.6604     3.1255     3.9032 H       
  39 H39           -0.8885     3.7917     1.3263 H       
  40 H40           -2.5235     4.6203     0.0061 H       
  41 H41           -2.4245     9.4349     0.8703 H       
  42 H42           -0.2848     8.1814     0.8491 H       
  43 H43           -5.6408     7.9068     0.3046 H       
  44 H44           -4.8167     9.3335     0.6335 H       
@<TRIPOS>BOND
   1    1    2 am
   2    1   10 1
   3    1   15 1
   4    2    3 1
   5    2   14 2
   6    3    4 2
   7    3   31 1
   8    4    5 1
   9    4   32 1
  10    5    6 ar
  11    5   10 ar
  12    6    7 ar
  13    6   33 1
  14    7    8 ar
  15    8    9 ar
  16    8   13 ar
  17    9   10 ar
  18    9   21 ar
  19   11   12 ar
  20   11   22 1
  21   11   21 ar
  22   12   13 ar
  23   12   34 1
  24   13   35 1
  25   15   16 ar
  26   15   20 ar
  27   16   17 ar
  28   16   24 1
  29   17   18 ar
  30   17   36 1
  31   18   19 ar
  32   18   25 1
  33   19   20 ar
  34   19   37 1
  35   20   38 1
  36   21   39 1
  37   22   23 ar
  38   22   29 ar
  39   23   26 ar
  40   23   40 1
  41   26   27 ar
  42   27   28 ar
  43   27   30 1
  44   28   29 ar
  45   28   41 1
  46   29   42 1
  47   30   43 1
  48   30   44 1

#	End of record

