#	Name: ASD04590465
#	Creating user name:	WinNT
#	Creation time:	15. 06. 2019 20:50

#	Modifying user name:	WinNT
#	Modification time:	15. 06. 2019 20:50

#	Program:	/corina/corina34_cracker 3.40 0067  02.08.2006

@<TRIPOS>MOLECULE
ASD04590465
  57   62    0    0    0
SMALL
NO_CHARGES


@<TRIPOS>ATOM
   1 C1            -0.0167     1.3832     0.0096 C.ar    
   2 C2             0.0021    -0.0041     0.0020 C.ar    
   3 C3             2.4020     0.0223    -0.0207 C.ar    
   4 C4             2.3769     1.4283    -0.0129 C.ar    
   5 C5             1.1624     2.0987     0.0022 C.ar    
   6 N6             3.7040    -0.3552    -0.0352 N.2     
   7 C7             4.4709     0.7083    -0.0368 C.2     
   8 N8             3.6969     1.8375    -0.0233 N.pl3   
   9 C9             5.9482     0.6906    -0.0514 C.2     
  10 C10            6.7657    -0.4632    -0.0664 C.2     
  11 C11            8.0580    -0.0539    -0.0766 C.2     
  12 N12            8.0646     1.3050    -0.0685 N.pl3   
  13 N13            6.7360     1.7480    -0.0585 N.2     
  14 N14            6.3190    -1.7941    -0.0700 N.am    
  15 C15            7.2111    -2.8043    -0.0848 C.2     
  16 O16            8.4029    -2.5630    -0.0951 O.2     
  17 C17            1.1969    -0.6870    -0.0130 C.ar    
  18 C18           -1.2962    -0.7693     0.0108 C.3     
  19 N19           -1.7317    -1.0105    -1.3713 N.3     
  20 C20           -2.8603    -1.9518    -1.4113 C.3     
  21 C21           -0.6175    -1.4976    -2.1974 C.3     
  22 C22           -1.0994    -1.6784    -3.6393 C.3     
  23 O23           -2.2160    -2.5719    -3.6550 O.3     
  24 C24           -3.3197    -2.1280    -2.8611 C.3     
  25 C25            6.7414    -4.2037    -0.0886 C.2     
  26 N26            5.4584    -4.4728    -0.0776 N.2     
  27 C27            7.7079    -5.3136    -0.1109 C.ar    
  28 C28            7.1882    -6.6291    -0.1139 C.ar    
  29 C29            5.7259    -6.7729    -0.0943 C.2     
  30 N30            4.9705    -5.6554    -0.0803 N.am    
  31 O31            5.2082    -7.8747    -0.0957 O.2     
  32 C32            9.0836    -5.1139    -0.1292 C.ar    
  33 C33            9.9258    -6.2060    -0.1501 C.ar    
  34 C34            9.4156    -7.4972    -0.1530 C.ar    
  35 C35            8.0543    -7.7173    -0.1351 C.ar    
  36 H36           -0.9614     1.9066     0.0169 H       
  37 H37            1.1403     3.1784     0.0079 H       
  38 H38            4.0155     2.7537    -0.0215 H       
  39 H39            8.9278    -0.6940    -0.0884 H       
  40 H40            8.8529     1.8703    -0.0728 H       
  41 H41            5.3683    -1.9867    -0.0618 H       
  42 H42            1.2037    -1.7669    -0.0185 H       
  43 H43           -1.1522    -1.7232     0.5181 H       
  44 H44           -2.0559    -0.1898     0.5353 H       
  45 H45           -2.5453    -2.9149    -1.0097 H       
  46 H46           -3.6831    -1.5591    -0.8140 H       
  47 H47            0.1968    -0.7734    -2.1739 H       
  48 H48           -0.2667    -2.4535    -1.8083 H       
  49 H49           -1.4000    -0.7130    -4.0463 H       
  50 H50           -0.2926    -2.0935    -4.2433 H       
  51 H51           -4.1187    -2.8683    -2.9023 H       
  52 H52           -3.6848    -1.1756    -3.2455 H       
  53 H53            4.0056    -5.7538    -0.0671 H       
  54 H54            9.4890    -4.1130    -0.1275 H       
  55 H55           10.9951    -6.0548    -0.1648 H       
  56 H56           10.0924    -8.3386    -0.1699 H       
  57 H57            7.6647    -8.7245    -0.1371 H       
@<TRIPOS>BOND
   1    1    2 ar
   2    1    5 ar
   3    1   36 1
   4    2   17 ar
   5    2   18 1
   6    3    4 ar
   7    3    6 1
   8    3   17 ar
   9    4    5 ar
  10    4    8 1
  11    5   37 1
  12    6    7 2
  13    7    8 1
  14    7    9 1
  15    8   38 1
  16    9   10 1
  17    9   13 2
  18   10   11 2
  19   10   14 1
  20   11   12 1
  21   11   39 1
  22   12   13 1
  23   12   40 1
  24   14   15 am
  25   14   41 1
  26   15   16 2
  27   15   25 1
  28   17   42 1
  29   18   19 1
  30   18   43 1
  31   18   44 1
  32   19   20 1
  33   19   21 1
  34   20   24 1
  35   20   45 1
  36   20   46 1
  37   21   22 1
  38   21   47 1
  39   21   48 1
  40   22   23 1
  41   22   49 1
  42   22   50 1
  43   23   24 1
  44   24   51 1
  45   24   52 1
  46   25   26 2
  47   25   27 1
  48   26   30 1
  49   27   28 ar
  50   27   32 ar
  51   28   29 1
  52   28   35 ar
  53   29   30 am
  54   29   31 2
  55   30   53 1
  56   32   33 ar
  57   32   54 1
  58   33   34 ar
  59   33   55 1
  60   34   35 ar
  61   34   56 1
  62   35   57 1

#	End of record

