#	Name: ASD02770084
#	Creating user name:	WinNT
#	Creation time:	15. 06. 2019 20:26

#	Modifying user name:	WinNT
#	Modification time:	15. 06. 2019 20:26

#	Program:	/corina/corina34_cracker 3.40 0067  02.08.2006

@<TRIPOS>MOLECULE
ASD02770084
  23   22    0    0    0
SMALL
NO_CHARGES


@<TRIPOS>ATOM
   1 C1            -0.0184     1.5028     0.0103 C.2     
   2 C2             0.0021    -0.0041     0.0020 C.3     
   3 N3             1.0927     2.1646     0.0033 N.2     
   4 N4            -1.2140     2.1716     0.0196 N.pl3   
   5 O5             1.3556    -0.4620    -0.0134 O.3     
   6 C6             1.5520    -1.8069    -0.0225 C.ar    
   7 C7             2.8405    -2.3206    -0.0375 C.ar    
   8 C8             3.0379    -3.6878    -0.0468 C.ar    
   9 C9             1.9516    -4.5446    -0.0415 C.ar    
  10 C10            0.6658    -4.0343    -0.0265 C.ar    
  11 C11            0.4642    -2.6677    -0.0110 C.ar    
  12 Br12           2.2248    -6.4157    -0.0555 Br      
  13 H13           -0.4983    -0.3791     0.8948 H       
  14 H14           -0.5153    -0.3696    -0.8850 H       
  15 H15            1.0795     3.1345     0.0086 H       
  16 H16           -2.0474     1.6752     0.0209 H       
  17 H17           -1.2271     3.1415     0.0249 H       
  18 H18            3.6887    -1.6522    -0.0424 H       
  19 H19            4.0408    -4.0882    -0.0585 H       
  20 H20           -0.1808    -4.7048    -0.0224 H       
  21 H21           -0.5397    -2.2698     0.0052 H       
  22 Cl22           9.0408     8.1415     5.8948 Cl      
  23 H23            9.0408     9.5115     5.8948 H       
@<TRIPOS>BOND
   1    1    2 1
   2    1    3 2
   3    1    4 1
   4    2    5 1
   5    2   13 1
   6    2   14 1
   7    3   15 1
   8    4   16 1
   9    4   17 1
  10    5    6 1
  11    6    7 ar
  12    6   11 ar
  13    7    8 ar
  14    7   18 1
  15    8    9 ar
  16    8   19 1
  17    9   10 ar
  18    9   12 1
  19   10   11 ar
  20   10   20 1
  21   11   21 1
  22   22   23 1

#	End of record

