#	Name: ASD01881337
#	Creating user name:	WinNT
#	Creation time:	15. 06. 2019 19:42

#	Modifying user name:	WinNT
#	Modification time:	15. 06. 2019 19:42

#	Program:	/corina/corina34_cracker 3.40 0067  02.08.2006

@<TRIPOS>MOLECULE
ASD01881337
  57   58    0    0    0
SMALL
NO_CHARGES


@<TRIPOS>ATOM
   1 C1            -0.0179     1.4705     0.0101 C.2     
   2 C2             0.0021    -0.0041     0.0020 C.ar    
   3 C3             1.2214    -0.6885    -0.0133 C.ar    
   4 C4             1.2351    -2.0668    -0.0209 C.ar    
   5 C5             0.0370    -2.7760    -0.0133 C.ar    
   6 C6            -1.1754    -2.0983     0.0015 C.ar    
   7 C7            -1.1973    -0.7210     0.0154 C.ar    
   8 O8             1.0260     2.0923     0.0035 O.2     
   9 O9            -1.1939     2.1283     0.0193 O.3     
  10 O10            0.0538    -4.1334    -0.0208 O.3     
  11 C11           -1.2113    -4.7979    -0.0123 C.3     
  12 C12           -0.9921    -6.3121    -0.0226 C.3     
  13 C13           -2.3465    -7.0235    -0.0135 C.3     
  14 C14           -2.1273    -8.5377    -0.0238 C.3     
  15 O15           -3.3924    -9.2022    -0.0153 O.3     
  16 C16           -3.3756   -10.5588    -0.0228 C.ar    
  17 C17           -4.5708   -11.2640    -0.0153 C.ar    
  18 C18           -4.5561   -12.6478    -0.0229 C.ar    
  19 C19           -3.3256   -13.3296    -0.0383 C.ar    
  20 C20           -2.1288   -12.6006    -0.0458 C.ar    
  21 C21           -2.1594   -11.2363    -0.0438 C.ar    
  22 C22           -3.2956   -14.7941    -0.0460 C.2     
  23 C23           -1.9754   -15.5206    -0.0625 C.3     
  24 C24           -2.2240   -17.0303    -0.0678 C.3     
  25 C25           -0.8903   -17.7663    -0.2102 C.3     
  26 O26           -4.3337   -15.4223    -0.0391 O.2     
  27 C27           -2.8957   -17.4411     1.2441 C.3     
  28 C28           -5.8834   -10.5238     0.0017 C.3     
  29 O29           -5.7208   -13.3424    -0.0151 O.3     
  30 F30            2.4120    -2.7300    -0.0361 F       
  31 H31            2.1506    -0.1382    -0.0195 H       
  32 H32           -2.1025    -2.6522     0.0066 H       
  33 H33           -2.1408    -0.1957     0.0317 H       
  34 H34           -1.1564     3.0945     0.0244 H       
  35 H35           -1.7633    -4.5167     0.8845 H       
  36 H36           -1.7803    -4.5071    -0.8954 H       
  37 H37           -0.4400    -6.5932    -0.9194 H       
  38 H38           -0.4230    -6.6028     0.8604 H       
  39 H39           -2.8986    -6.7424     0.8833 H       
  40 H40           -2.9156    -6.7328    -0.8966 H       
  41 H41           -1.5753    -8.8188    -0.9206 H       
  42 H42           -1.5583    -8.8284     0.8592 H       
  43 H43           -1.1814   -13.1190    -0.0576 H       
  44 H44           -1.2345   -10.6788    -0.0544 H       
  45 H45           -1.4180   -15.2411    -0.9565 H       
  46 H46           -1.4007   -15.2501     0.8233 H       
  47 H47           -2.8728   -17.2887    -0.9046 H       
  48 H48           -0.2415   -17.5079     0.6267 H       
  49 H49           -1.0674   -18.8418    -0.2139 H       
  50 H50           -0.4118   -17.4737    -1.1448 H       
  51 H51           -3.0728   -18.5166     1.2404 H       
  52 H52           -2.2469   -17.1826     2.0810 H       
  53 H53           -3.8459   -16.9167     1.3456 H       
  54 H54           -6.2098   -10.3394    -1.0217 H       
  55 H55           -6.6320   -11.1234     0.5195 H       
  56 H56           -5.7576    -9.5730     0.5198 H       
  57 H57           -6.0673   -13.5391    -0.8962 H       
@<TRIPOS>BOND
   1    1    2 1
   2    1    8 2
   3    1    9 1
   4    2    3 ar
   5    2    7 ar
   6    3    4 ar
   7    3   31 1
   8    4    5 ar
   9    4   30 1
  10    5    6 ar
  11    5   10 1
  12    6    7 ar
  13    6   32 1
  14    7   33 1
  15    9   34 1
  16   10   11 1
  17   11   12 1
  18   11   35 1
  19   11   36 1
  20   12   13 1
  21   12   37 1
  22   12   38 1
  23   13   14 1
  24   13   39 1
  25   13   40 1
  26   14   15 1
  27   14   41 1
  28   14   42 1
  29   15   16 1
  30   16   17 ar
  31   16   21 ar
  32   17   18 ar
  33   17   28 1
  34   18   19 ar
  35   18   29 1
  36   19   20 ar
  37   19   22 1
  38   20   21 ar
  39   20   43 1
  40   21   44 1
  41   22   23 1
  42   22   26 2
  43   23   24 1
  44   23   45 1
  45   23   46 1
  46   24   25 1
  47   24   27 1
  48   24   47 1
  49   25   48 1
  50   25   49 1
  51   25   50 1
  52   27   51 1
  53   27   52 1
  54   27   53 1
  55   28   54 1
  56   28   55 1
  57   28   56 1
  58   29   57 1

#	End of record

