#	Name: ASD00122092
#	Creating user name:	WinNT
#	Creation time:	15. 06. 2019 18:31

#	Modifying user name:	WinNT
#	Modification time:	15. 06. 2019 18:31

#	Program:	/corina/corina34_cracker 3.40 0067  02.08.2006

@<TRIPOS>MOLECULE
ASD00122092
  33   36    0    0    0
SMALL
NO_CHARGES


@<TRIPOS>ATOM
   1 C1            -0.0169     1.3963     0.0097 C.ar    
   2 C2             0.0021    -0.0041     0.0020 C.ar    
   3 C3            -1.2265    -0.6740     0.0101 C.ar    
   4 N4            -2.3562     0.0290     0.0246 N.ar    
   5 C5            -2.3254     1.3453     0.0314 C.ar    
   6 N6            -1.1913     2.0199     0.0299 N.ar    
   7 O7             0.9938    -0.9179    -0.0123 O.3     
   8 C8             0.5044    -2.1771    -0.0144 C.ar    
   9 C9            -0.8969    -2.1090    -0.0007 C.ar    
  10 C10            1.1221    -3.4226    -0.0270 C.ar    
  11 C11            0.3609    -4.5717    -0.0263 C.ar    
  12 C12           -1.0237    -4.5016    -0.0128 C.ar    
  13 C13           -1.6549    -3.2765     0.0002 C.ar    
  14 S14            1.4869     2.3145     0.0003 S.3     
  15 C15            0.8264     3.9996     0.0156 C.3     
  16 C16            1.9658     4.9858     0.0101 C.ar    
  17 C17            2.4770     5.4446    -1.1889 C.ar    
  18 C18            3.5228     6.3491    -1.1943 C.ar    
  19 C19            4.0581     6.7954    -0.0007 C.ar    
  20 C20            3.5481     6.3383     1.1999 C.ar    
  21 C21            2.4973     5.4370     1.2066 C.ar    
  22 F22            1.9977     4.9898     2.3795 F       
  23 H23           -3.2579     1.8902     0.0428 H       
  24 H24            2.2000    -3.4898    -0.0376 H       
  25 H25            0.8476    -5.5357    -0.0368 H       
  26 H26           -1.6091    -5.4092    -0.0125 H       
  27 H27           -2.7335    -3.2225     0.0108 H       
  28 H28            0.2069     4.1551    -0.8676 H       
  29 H29            0.2239     4.1455     0.9122 H       
  30 H30            2.0597     5.0962    -2.1222 H       
  31 H31            3.9219     6.7068    -2.1320 H       
  32 H32            4.8754     7.5014    -0.0062 H       
  33 H33            3.9668     6.6869     2.1324 H       
@<TRIPOS>BOND
   1    1    2 ar
   2    1   14 1
   3    1    6 ar
   4    2    3 ar
   5    2    7 1
   6    3    4 ar
   7    3    9 1
   8    4    5 ar
   9    5    6 ar
  10    5   23 1
  11    7    8 1
  12    8    9 ar
  13    8   10 ar
  14    9   13 ar
  15   10   11 ar
  16   10   24 1
  17   11   12 ar
  18   11   25 1
  19   12   13 ar
  20   12   26 1
  21   13   27 1
  22   14   15 1
  23   15   16 1
  24   15   28 1
  25   15   29 1
  26   16   17 ar
  27   16   21 ar
  28   17   18 ar
  29   17   30 1
  30   18   19 ar
  31   18   31 1
  32   19   20 ar
  33   19   32 1
  34   20   21 ar
  35   20   33 1
  36   21   22 1

#	End of record

