#	Name: ASD01141059
#	Creating user name:	WinNT
#	Creation time:	15. 06. 2019 19:01

#	Modifying user name:	WinNT
#	Modification time:	15. 06. 2019 19:01

#	Program:	/corina/corina34_cracker 3.40 0067  02.08.2006

@<TRIPOS>MOLECULE
ASD01141059
  39   40    0    0    0
SMALL
NO_CHARGES


@<TRIPOS>ATOM
   1 C1             0.1657     1.5465    -0.9277 C.ar    
   2 C2             0.0118     0.6109    -1.9323 C.ar    
   3 C3             1.2181     2.4635    -0.9879 C.ar    
   4 Cl4           -0.9495     1.5874     0.4021 Cl      
   5 C5             0.8965     0.5809    -2.9946 C.ar    
   6 C6             2.1068     2.4267    -2.0643 C.ar    
   7 C7             1.3896     3.4683     0.0828 C.2     
   8 C8             1.9414     1.4866    -3.0594 C.ar    
   9 C9             2.5644     4.3471     0.0826 C.2     
  10 O10            0.5564     3.5666     0.9643 O.2     
  11 C11            2.4096     5.7083    -0.1058 C.2     
  12 C12            3.9033     3.7818     0.2824 C.2     
  13 N13            3.4743     6.5297     0.0030 N.pl3   
  14 O14            4.0671     2.4453     0.3534 O.3     
  15 O15            4.8653     4.5185     0.3839 O.2     
  16 C16            3.2987     7.9148    -0.0687 C.ar    
  17 C17            2.0293     8.4469    -0.2520 C.ar    
  18 C18            4.3941     8.7631     0.0490 C.ar    
  19 C19            1.8591     9.8160    -0.3220 C.ar    
  20 C20            4.2164    10.1315    -0.0220 C.ar    
  21 C21            2.9509    10.6570    -0.2103 C.ar    
  22 H22            4.3616     6.1593     0.1310 H       
  23 C23            5.4300     1.9518     0.4385 C.3     
  24 C24            5.4230     0.4227     0.3855 C.3     
  25 Cl25           5.9826     8.1040     0.2854 Cl      
  26 H26           -0.8010    -0.0989    -1.8877 H       
  27 H27            0.7720    -0.1528    -3.7772 H       
  28 H28            2.9222     3.1329    -2.1172 H       
  29 H29            2.6286     1.4573    -3.8921 H       
  30 H30            1.4364     6.1138    -0.3401 H       
  31 H31            1.1758     7.7909    -0.3401 H       
  32 H32            0.8719    10.2301    -0.4645 H       
  33 H33            5.0670    10.7913     0.0651 H       
  34 H34            2.8147    11.7269    -0.2662 H       
  35 H35            6.0104     2.3416    -0.3977 H       
  36 H36            5.8777     2.2808     1.3762 H       
  37 H37            6.4356     0.0493     0.5382 H       
  38 H38            4.7709     0.0351     1.1682 H       
  39 H39            5.0576     0.0945    -0.5875 H       
@<TRIPOS>BOND
   1    1    2 ar
   2    1    3 ar
   3    1    4 1
   4    2    5 ar
   5    2   26 1
   6    3    6 ar
   7    3    7 1
   8    5    8 ar
   9    5   27 1
  10    6    8 ar
  11    6   28 1
  12    7    9 1
  13    7   10 2
  14    8   29 1
  15    9   11 2
  16    9   12 1
  17   11   13 1
  18   11   30 1
  19   12   14 1
  20   12   15 2
  21   13   16 1
  22   13   22 1
  23   14   23 1
  24   16   17 ar
  25   16   18 ar
  26   17   19 ar
  27   17   31 1
  28   18   25 1
  29   18   20 ar
  30   19   21 ar
  31   19   32 1
  32   20   21 ar
  33   20   33 1
  34   21   34 1
  35   23   24 1
  36   23   35 1
  37   23   36 1
  38   24   37 1
  39   24   38 1
  40   24   39 1

#	End of record

