#	Name: ASD05430375
#	Creating user name:	WinNT
#	Creation time:	15. 06. 2019 21:00

#	Modifying user name:	WinNT
#	Modification time:	15. 06. 2019 21:00

#	Program:	/corina/corina34_cracker 3.40 0067  02.08.2006

@<TRIPOS>MOLECULE
ASD05430375
  57   61    0    0    0
SMALL
NO_CHARGES


@<TRIPOS>ATOM
   1 C1            -1.0324    -0.5189    -0.4721 C.ar    
   2 C2            -0.0110    -0.0090     0.3287 C.ar    
   3 C3            -0.2009     1.1725     1.0338 C.ar    
   4 C4            -1.3995     1.8464     0.9454 C.ar    
   5 C5            -2.4283     1.3412     0.1439 C.ar    
   6 C6            -2.2353     0.1546    -0.5700 C.ar    
   7 C7            -4.8619     1.3704    -0.0467 C.2     
   8 C8            -3.7098     2.0594     0.0485 C.2     
   9 N9            -7.2327     1.6172     0.4456 N.pl3   
  10 C10           -6.1393     2.0607    -0.2972 C.2     
  11 O11           -0.8430    -1.6756    -1.1609 O.3     
  12 C12           -1.9320    -2.1397    -1.9614 C.3     
  13 C13            2.4595    -0.1500     0.2620 C.2     
  14 N14            1.2100    -0.6906     0.4227 N.pl3   
  15 C15            3.3430    -1.1513     0.4358 C.2     
  16 N16            2.6574    -2.2744     0.6957 N.2     
  17 C17            1.3788    -2.0114     0.6906 C.2     
  18 C18            4.8429    -1.0309     0.3523 C.3     
  19 C19           -7.0777     0.3981     1.2375 C.3     
  20 C20           -6.2860    -0.6309     0.4217 C.3     
  21 C21           -4.8817    -0.1332     0.0940 C.3     
  22 C22           -8.4737     2.3878     0.4165 C.3     
  23 C23           -8.6684     2.9349    -1.0020 C.3     
  24 O24           -7.5017     3.6345    -1.4220 O.3     
  25 N25           -6.2642     3.0112    -1.1621 N.2     
  26 C26           -8.3845     3.5313     1.3940 C.ar    
  27 C27           -9.4827     3.8706     2.1621 C.ar    
  28 C28           -9.4019     4.9188     3.0592 C.ar    
  29 C29           -8.2204     5.6292     3.1884 C.ar    
  30 C30           -7.1212     5.2884     2.4185 C.ar    
  31 C31           -7.2028     4.2365     1.5260 C.ar    
  32 F32           -8.1404     6.6543     4.0647 F       
  33 H33            0.5926     1.5638     1.6532 H       
  34 H34           -1.5447     2.7645     1.4954 H       
  35 H35           -3.0269    -0.2387    -1.1904 H       
  36 H36           -3.7253     3.1393     0.0550 H       
  37 H37           -1.6491    -3.0690    -2.4560 H       
  38 H38           -2.8004    -2.3157    -1.3267 H       
  39 H39           -2.1770    -1.3885    -2.7123 H       
  40 H40            2.6907     0.8803     0.0349 H       
  41 H41            0.5878    -2.7246     0.8697 H       
  42 H42            5.2437    -0.7928     1.3376 H       
  43 H43            5.2645    -1.9749     0.0070 H       
  44 H44            5.1053    -0.2380    -0.3481 H       
  45 H45           -6.5401     0.6272     2.1576 H       
  46 H46           -8.0603    -0.0067     1.4795 H       
  47 H47           -6.2115    -1.5560     0.9933 H       
  48 H48           -6.8175    -0.8316    -0.5085 H       
  49 H49           -4.5507    -0.5849    -0.8412 H       
  50 H50           -4.2017    -0.4273     0.8934 H       
  51 H51           -9.3124     1.7433     0.6800 H       
  52 H52           -8.8592     2.1074    -1.6854 H       
  53 H53           -9.5208     3.6142    -1.0135 H       
  54 H54          -10.4042     3.3166     2.0609 H       
  55 H55          -10.2600     5.1840     3.6589 H       
  56 H56           -6.1992     5.8418     2.5185 H       
  57 H57           -6.3455     3.9705     0.9254 H       
@<TRIPOS>BOND
   1    1    2 ar
   2    1   11 1
   3    1    6 ar
   4    2    3 ar
   5    2   14 1
   6    3    4 ar
   7    3   33 1
   8    4    5 ar
   9    4   34 1
  10    5    6 ar
  11    5    8 1
  12    6   35 1
  13    7    8 2
  14    7   21 1
  15    7   10 1
  16    8   36 1
  17    9   10 1
  18    9   19 1
  19    9   22 1
  20   10   25 2
  21   11   12 1
  22   12   37 1
  23   12   38 1
  24   12   39 1
  25   13   14 1
  26   13   15 2
  27   13   40 1
  28   14   17 1
  29   15   16 1
  30   15   18 1
  31   16   17 2
  32   17   41 1
  33   18   42 1
  34   18   43 1
  35   18   44 1
  36   19   20 1
  37   19   45 1
  38   19   46 1
  39   20   21 1
  40   20   47 1
  41   20   48 1
  42   21   49 1
  43   21   50 1
  44   22   23 1
  45   22   26 1
  46   22   51 1
  47   23   24 1
  48   23   52 1
  49   23   53 1
  50   24   25 1
  51   26   27 ar
  52   26   31 ar
  53   27   28 ar
  54   27   54 1
  55   28   29 ar
  56   28   55 1
  57   29   30 ar
  58   29   32 1
  59   30   31 ar
  60   30   56 1
  61   31   57 1

#	End of record

