#	Name: ASD01811220
#	Creating user name:	WinNT
#	Creation time:	15. 06. 2019 19:26

#	Modifying user name:	WinNT
#	Modification time:	15. 06. 2019 19:26

#	Program:	/corina/corina34_cracker 3.40 0067  02.08.2006

@<TRIPOS>MOLECULE
ASD01811220
  55   58    0    0    0
SMALL
NO_CHARGES


@<TRIPOS>ATOM
   1 C1             0.4043     0.8556     1.7626 C.2     
   2 C2             0.2076    -0.3010     0.8712 C.ar    
   3 C3             1.1749    -0.6199    -0.0881 C.ar    
   4 C4             0.9912    -1.7030    -0.9233 C.ar    
   5 C5            -0.1467    -2.4790    -0.8189 C.ar    
   6 C6            -1.1212    -2.1723     0.1339 C.ar    
   7 C7            -0.9410    -1.0846     0.9851 C.ar    
   8 O8             1.5218     1.1603     2.1232 O.2     
   9 Cl9           -0.9623     1.7865     2.2910 Cl      
  10 C10           -0.3378    -3.6597    -1.7358 C.3     
  11 C11            2.4194     0.2212    -0.2098 C.3     
  12 C12            3.7096    -0.5311     0.1566 C.3     
  13 C13            4.3733     0.1900    -1.0284 C.3     
  14 C14            2.9687     0.3047    -1.6438 C.3     
  15 C15           -2.3385    -3.0045     0.2429 C.2     
  16 O16           -2.2443    -4.2154     0.2934 O.2     
  17 N17           -3.5524    -2.4206     0.2863 N.am    
  18 C18           -4.7607    -3.2224     0.5226 C.3     
  19 C19           -5.7665    -2.9403    -0.5979 C.3     
  20 C20           -6.0190    -1.4333    -0.6838 C.3     
  21 C21           -4.7103    -0.7133    -1.0170 C.3     
  22 C22           -3.6919    -0.9694     0.1044 C.3     
  23 C23           -7.0338    -1.1550    -1.7626 C.ar    
  24 C24           -8.2253    -0.5288    -1.4422 C.ar    
  25 C25           -9.1587    -0.2710    -2.4247 C.ar    
  26 C26           -8.8986    -0.6431    -3.7451 C.ar    
  27 C27           -7.6939    -1.2743    -4.0615 C.ar    
  28 C28           -6.7673    -1.5217    -3.0699 C.ar    
  29 C29           -9.8631    -0.3791    -4.7701 C.1     
  30 N30          -10.6282    -0.1696    -5.5832 N.1     
  31 H31            1.7406    -1.9448    -1.6624 H       
  32 H32           -1.6890    -0.8463     1.7268 H       
  33 H33            0.1520    -4.5346    -1.3083 H       
  34 H34           -1.4027    -3.8603    -1.8527 H       
  35 H35            0.0992    -3.4380    -2.7094 H       
  36 H36            2.3249     1.1903     0.2801 H       
  37 H37            4.1201    -0.2475     1.1257 H       
  38 H38            3.6376    -1.6108     0.0258 H       
  39 H39            4.8137     1.1513    -0.7634 H       
  40 H40            5.0506    -0.4434    -1.6012 H       
  41 H41            2.6941    -0.5466    -2.2668 H       
  42 H42            2.7810     1.2629    -2.1281 H       
  43 H43           -4.5022    -4.2813     0.5236 H       
  44 H44           -5.1979    -2.9500     1.4832 H       
  45 H45           -5.3641    -3.2964    -1.5462 H       
  46 H46           -6.7034    -3.4545    -0.3837 H       
  47 H47           -6.3981    -1.0735     0.2727 H       
  48 H48           -4.3178    -1.0904    -1.9613 H       
  49 H49           -4.8954     0.3576    -1.1011 H       
  50 H50           -4.0438    -0.5170     1.0316 H       
  51 H51           -2.7280    -0.5413    -0.1707 H       
  52 H52           -8.4252    -0.2415    -0.4205 H       
  53 H53          -10.0886     0.2172    -2.1731 H       
  54 H54           -7.4864    -1.5648    -5.0808 H       
  55 H55           -5.8334    -2.0062    -3.3138 H       
@<TRIPOS>BOND
   1    1    2 1
   2    1    8 2
   3    1    9 1
   4    2    3 ar
   5    2    7 ar
   6    3    4 ar
   7    3   11 1
   8    4    5 ar
   9    4   31 1
  10    5    6 ar
  11    5   10 1
  12    6    7 ar
  13    6   15 1
  14    7   32 1
  15   10   33 1
  16   10   34 1
  17   10   35 1
  18   11   12 1
  19   11   14 1
  20   11   36 1
  21   12   13 1
  22   12   37 1
  23   12   38 1
  24   13   14 1
  25   13   39 1
  26   13   40 1
  27   14   41 1
  28   14   42 1
  29   15   16 2
  30   15   17 am
  31   17   18 1
  32   17   22 1
  33   18   19 1
  34   18   43 1
  35   18   44 1
  36   19   20 1
  37   19   45 1
  38   19   46 1
  39   20   21 1
  40   20   23 1
  41   20   47 1
  42   21   22 1
  43   21   48 1
  44   21   49 1
  45   22   50 1
  46   22   51 1
  47   23   24 ar
  48   23   28 ar
  49   24   25 ar
  50   24   52 1
  51   25   26 ar
  52   25   53 1
  53   26   27 ar
  54   26   29 1
  55   27   28 ar
  56   27   54 1
  57   28   55 1
  58   29   30 3

#	End of record

