#	Name: ASD07300826
#	Creating user name:	WinNT
#	Creation time:	15. 06. 2019 21:10

#	Modifying user name:	WinNT
#	Modification time:	15. 06. 2019 21:10

#	Program:	/corina/corina34_cracker 3.40 0067  02.08.2006

@<TRIPOS>MOLECULE
ASD07300826
  47   51    0    0    0
SMALL
NO_CHARGES


@<TRIPOS>ATOM
   1 C1            -0.0034     1.3925     0.2414 C.2     
   2 C2             0.0021    -0.0041     0.0020 C.2     
   3 N3             1.1924     2.0682     0.2265 N.pl3   
   4 N4             1.1445    -0.6201    -0.2278 N.2     
   5 C5             2.3036     0.0470    -0.2402 C.2     
   6 C6             2.3503     1.3751    -0.0178 C.2     
   7 N7            -0.9664     2.2611     0.5002 N.2     
   8 C8            -0.4399     3.4746     0.6473 C.2     
   9 C9             0.9141     3.3817     0.4814 C.2     
  10 N10            3.6715     5.6708     1.0547 N.pl3   
  11 N11            2.8218     6.4632     0.2736 N.2     
  12 C12            1.7575     5.7655    -0.0227 C.2     
  13 C13            1.8915     4.4909     0.5645 C.2     
  14 C14            3.0875     4.4656     1.2239 C.2     
  15 C15            4.9730     6.0772     1.5906 C.3     
  16 C16            5.8656     6.5644     0.4475 C.3     
  17 F17            5.2600     7.6558    -0.1844 F       
  18 F18            7.1084     6.9526     0.9593 F       
  19 F19            6.0446     5.5303    -0.4776 F       
  20 N20           -1.1860    -0.7178     0.0100 N.pl3   
  21 C21           -2.4813    -0.0311     0.1360 C.3     
  22 C22           -3.4038    -0.5300    -0.9821 C.3     
  23 O23           -3.4381    -1.9591    -0.9615 O.3     
  24 C24           -2.1747    -2.5786    -1.2141 C.3     
  25 C25           -1.1896    -2.1841    -0.1135 C.3     
  26 C26           -1.2060     4.7365     0.9504 C.3     
  27 C27           -2.2765     5.1712    -0.0527 C.3     
  28 C28           -2.6879     4.5956     1.3039 C.3     
  29 H29            3.2209    -0.4898    -0.4320 H       
  30 H30            3.2979     1.8930    -0.0323 H       
  31 H31            0.9207     6.1061    -0.6144 H       
  32 H32            3.4922     3.6328     1.7798 H       
  33 H33            4.8335     6.8829     2.3114 H       
  34 H34            5.4448     5.2269     2.0830 H       
  35 H35           -2.9242    -0.2578     1.1059 H       
  36 H36           -2.3372     1.0450     0.0402 H       
  37 H37           -4.4093    -0.1394    -0.8259 H       
  38 H38           -3.0254    -0.1888    -1.9457 H       
  39 H39           -2.2959    -3.6617    -1.2248 H       
  40 H40           -1.7918    -2.2448    -2.1785 H       
  41 H41           -0.1904    -2.5330    -0.3744 H       
  42 H42           -1.5001    -2.6313     0.8308 H       
  43 H43           -0.6404     5.5203     1.4541 H       
  44 H44           -2.4153     6.2410    -0.2085 H       
  45 H45           -2.4266     4.5444    -0.9317 H       
  46 H46           -3.1088     3.5902     1.3174 H       
  47 H47           -3.0975     5.2868     2.0406 H       
@<TRIPOS>BOND
   1    1    2 1
   2    1    3 1
   3    1    7 2
   4    2    4 2
   5    2   20 1
   6    3    6 1
   7    3    9 1
   8    4    5 1
   9    5    6 2
  10    5   29 1
  11    6   30 1
  12    7    8 1
  13    8    9 2
  14    8   26 1
  15    9   13 1
  16   10   11 1
  17   10   14 1
  18   10   15 1
  19   11   12 2
  20   12   13 1
  21   12   31 1
  22   13   14 2
  23   14   32 1
  24   15   16 1
  25   15   33 1
  26   15   34 1
  27   16   17 1
  28   16   18 1
  29   16   19 1
  30   20   21 1
  31   20   25 1
  32   21   22 1
  33   21   35 1
  34   21   36 1
  35   22   23 1
  36   22   37 1
  37   22   38 1
  38   23   24 1
  39   24   25 1
  40   24   39 1
  41   24   40 1
  42   25   41 1
  43   25   42 1
  44   26   27 1
  45   26   28 1
  46   26   43 1
  47   27   28 1
  48   27   44 1
  49   27   45 1
  50   28   46 1
  51   28   47 1

#	End of record

