#	Name: ASD03740200
#	Creating user name:	WinNT
#	Creation time:	15. 06. 2019 20:46

#	Modifying user name:	WinNT
#	Modification time:	15. 06. 2019 20:46

#	Program:	/corina/corina34_cracker 3.40 0067  02.08.2006

@<TRIPOS>MOLECULE
ASD03740200
  46   48    0    0    0
SMALL
NO_CHARGES


@<TRIPOS>ATOM
   1 C1            -0.0168     1.3849     0.0097 C.ar    
   2 C2             0.0021    -0.0041     0.0020 C.ar    
   3 C3             1.1850    -0.6877    -0.0125 C.ar    
   4 C4             2.3894     0.0113    -0.0203 C.ar    
   5 C5             2.3718     1.4195    -0.0131 C.ar    
   6 C6             1.1486     2.0963     0.0023 C.ar    
   7 N7             3.7063    -0.3680    -0.0346 N.pl3   
   8 N8             4.5133     0.7743    -0.0364 N.2     
   9 C9             3.7704     1.8474    -0.0241 C.2     
  10 O10            4.2163     3.1315    -0.0222 O.3     
  11 C11            4.1915    -1.7503    -0.0454 C.3     
  12 C12            4.3467    -2.2250    -1.4916 C.3     
  13 C13            4.8458    -3.6469    -1.5027 C.ar    
  14 C14            3.9449    -4.6955    -1.4987 C.ar    
  15 C15            5.6318     3.3268    -0.0344 C.3     
  16 C16            5.9400     4.8254    -0.0302 C.3     
  17 N17            5.4770     5.4170     1.2321 N.3     
  18 C18            6.2475     4.8986     2.3703 C.3     
  19 C19            5.5377     6.8838     1.1796 C.3     
  20 C20            6.2043    -3.9022    -1.5225 C.ar    
  21 C21            6.6627    -5.2060    -1.5332 C.ar    
  22 C22            5.7617    -6.2559    -1.5235 C.ar    
  23 C23            4.4021    -5.9998    -1.5089 C.ar    
  24 Cl24           6.3367    -7.8938    -1.5374 Cl      
  25 H25           -0.9621     1.9071     0.0170 H       
  26 H26           -0.9296    -0.5502     0.0080 H       
  27 H27            1.1859    -1.7677    -0.0176 H       
  28 H28            1.1256     3.1760     0.0077 H       
  29 H29            5.1565    -1.8005     0.4590 H       
  30 H30            3.4771    -2.3902     0.4724 H       
  31 H31            3.3817    -2.1748    -1.9960 H       
  32 H32            5.0611    -1.5851    -2.0094 H       
  33 H33            2.8837    -4.4955    -1.4873 H       
  34 H34            6.0702     2.8632     0.8494 H       
  35 H35            6.0537     2.8716    -0.9305 H       
  36 H36            7.0151     4.9756    -0.1291 H       
  37 H37            5.4280     5.3039    -0.8651 H       
  38 H38            7.3016     5.1416     2.2363 H       
  39 H39            5.8842     5.3529     3.2921 H       
  40 H40            6.1285     3.8166     2.4270 H       
  41 H41            4.9027     7.2450     0.3707 H       
  42 H42            5.1895     7.2960     2.1267 H       
  43 H43            6.5661     7.1988     1.0025 H       
  44 H44            6.9076    -3.0826    -1.5301 H       
  45 H45            7.7240    -5.4053    -1.5494 H       
  46 H46            3.6983    -6.8189    -1.5010 H       
@<TRIPOS>BOND
   1    1    2 ar
   2    1    6 ar
   3    1   25 1
   4    2    3 ar
   5    2   26 1
   6    3    4 ar
   7    3   27 1
   8    4    5 ar
   9    4    7 1
  10    5    6 ar
  11    5    9 1
  12    6   28 1
  13    7    8 1
  14    7   11 1
  15    8    9 2
  16    9   10 1
  17   10   15 1
  18   11   12 1
  19   11   29 1
  20   11   30 1
  21   12   13 1
  22   12   31 1
  23   12   32 1
  24   13   14 ar
  25   13   20 ar
  26   14   23 ar
  27   14   33 1
  28   15   16 1
  29   15   34 1
  30   15   35 1
  31   16   17 1
  32   16   36 1
  33   16   37 1
  34   17   18 1
  35   17   19 1
  36   18   38 1
  37   18   39 1
  38   18   40 1
  39   19   41 1
  40   19   42 1
  41   19   43 1
  42   20   21 ar
  43   20   44 1
  44   21   22 ar
  45   21   45 1
  46   22   23 ar
  47   22   24 1
  48   23   46 1

#	End of record

