#	Name: ASD03490082
#	Creating user name:	WinNT
#	Creation time:	15. 06. 2019 20:42

#	Modifying user name:	WinNT
#	Modification time:	15. 06. 2019 20:42

#	Program:	/corina/corina34_cracker 3.40 0067  02.08.2006

@<TRIPOS>MOLECULE
ASD03490082
  72   73    0    0    0
SMALL
NO_CHARGES


@<TRIPOS>ATOM
   1 C1            -0.0187     1.5251     0.0104 C.3     
   2 C2             0.0021    -0.0041     0.0020 C.3     
   3 O3             0.8082    -0.4860     1.0794 O.3     
   4 C4             2.1717    -0.0453     1.0179 C.3     
   5 C5             2.1673     1.4674     0.9218 C.2     
   6 O6             1.3496     2.0248     0.0000 O.3     
   7 C7             2.8097    -0.6079    -0.2585 C.3     
   8 C8             0.5571    -0.5127    -1.3282 C.3     
   9 C9             2.0228    -0.0930    -1.4684 C.3     
  10 O10            2.1085     1.3324    -1.5227 O.3     
  11 O11            2.9001    -0.4782     2.1970 O.3     
  12 C12            2.3906    -0.1315     3.3895 C.2     
  13 C13            3.0918    -0.5453     4.6576 C.3     
  14 O14            1.3698     0.5124     3.4461 O.2     
  15 C15            2.3094    -0.0265     5.8657 C.3     
  16 O16            2.8642     2.1462     1.6383 O.2     
  17 C17           -0.7334     2.0193     1.2697 C.3     
  18 O18           -2.0741     1.5251     1.2815 O.3     
  19 C19           -0.7537     3.5492     1.2774 C.3     
  20 O20           -1.3165     4.0119     2.5067 O.3     
  21 C21            3.0213    -0.4466     7.1531 C.3     
  22 C22            2.2388     0.0722     8.3612 C.3     
  23 C23            2.9507    -0.3479     9.6487 C.3     
  24 C24            2.1682     0.1709    10.8567 C.3     
  25 C25            2.8801    -0.2492    12.1442 C.3     
  26 C26            2.0977     0.2697    13.3523 C.3     
  27 C27            2.8096    -0.1505    14.6397 C.3     
  28 C28            2.0271     0.3684    15.8478 C.3     
  29 C29            2.7390    -0.0518    17.1352 C.3     
  30 N30            0.4623    -1.9741    -1.3693 N.am    
  31 O31            0.4244    -1.9769    -3.5875 O.2     
  32 C32            0.4010    -2.6123    -2.5547 C.2     
  33 C33            0.3034    -4.1156    -2.5970 C.3     
  34 H34           -0.5449     1.8867    -0.8730 H       
  35 H35           -1.0151    -0.3778     0.1193 H       
  36 H36            3.8453    -0.2749    -0.3272 H       
  37 H37            2.7741    -1.6971    -0.2357 H       
  38 H38           -0.0218    -0.0889    -2.1487 H       
  39 H39            2.4382    -0.5192    -2.3816 H       
  40 H40            3.0112     1.6693    -1.6057 H       
  41 H41            3.1501    -1.6329     4.7022 H       
  42 H42            4.0982    -0.1268     4.6695 H       
  43 H43            2.2511     1.0611     5.8210 H       
  44 H44            1.3030    -0.4450     5.8538 H       
  45 H45           -0.2054     1.6585     2.1524 H       
  46 H46           -2.6040     1.8072     0.5233 H       
  47 H47            0.2641     3.9266     1.1789 H       
  48 H48           -1.3568     3.9087     0.4436 H       
  49 H49           -1.3608     4.9750     2.5811 H       
  50 H50            3.0795    -1.5342     7.1978 H       
  51 H51            4.0276    -0.0281     7.1650 H       
  52 H52            2.1806     1.1598     8.3165 H       
  53 H53            1.2324    -0.3463     8.3493 H       
  54 H54            3.0089    -1.4354     9.6933 H       
  55 H55            3.9571     0.0706     9.6606 H       
  56 H56            2.1100     1.2585    10.8121 H       
  57 H57            1.1619    -0.2476    10.8448 H       
  58 H58            2.9384    -1.3367    12.1888 H       
  59 H59            3.8865     0.1693    12.1561 H       
  60 H60            2.0394     1.3572    13.3076 H       
  61 H61            1.0913    -0.1489    13.3404 H       
  62 H62            2.8678    -1.2380    14.6844 H       
  63 H63            3.8159     0.2680    14.6516 H       
  64 H64            1.9689     1.4559    15.8031 H       
  65 H65            1.0207    -0.0502    15.8359 H       
  66 H66            2.1816     0.3178    17.9959 H       
  67 H67            2.7973    -1.1393    17.1799 H       
  68 H68            3.7454     0.3667    17.1471 H       
  69 H69            0.4436    -2.4823    -0.5433 H       
  70 H70            0.2955    -4.5079    -1.5801 H       
  71 H71           -0.6159    -4.4058    -3.1056 H       
  72 H72            1.1602    -4.5202    -3.1359 H       
@<TRIPOS>BOND
   1    1    2 1
   2    1    6 1
   3    1   17 1
   4    1   34 1
   5    2    3 1
   6    2    8 1
   7    2   35 1
   8    3    4 1
   9    4    5 1
  10    4    7 1
  11    4   11 1
  12    5    6 1
  13    5   16 2
  14    7    9 1
  15    7   36 1
  16    7   37 1
  17    8    9 1
  18    8   30 1
  19    8   38 1
  20    9   10 1
  21    9   39 1
  22   10   40 1
  23   11   12 1
  24   12   13 1
  25   12   14 2
  26   13   15 1
  27   13   41 1
  28   13   42 1
  29   15   21 1
  30   15   43 1
  31   15   44 1
  32   17   18 1
  33   17   19 1
  34   17   45 1
  35   18   46 1
  36   19   20 1
  37   19   47 1
  38   19   48 1
  39   20   49 1
  40   21   22 1
  41   21   50 1
  42   21   51 1
  43   22   23 1
  44   22   52 1
  45   22   53 1
  46   23   24 1
  47   23   54 1
  48   23   55 1
  49   24   25 1
  50   24   56 1
  51   24   57 1
  52   25   26 1
  53   25   58 1
  54   25   59 1
  55   26   27 1
  56   26   60 1
  57   26   61 1
  58   27   28 1
  59   27   62 1
  60   27   63 1
  61   28   29 1
  62   28   64 1
  63   28   65 1
  64   29   66 1
  65   29   67 1
  66   29   68 1
  67   30   32 am
  68   30   69 1
  69   31   32 2
  70   32   33 1
  71   33   70 1
  72   33   71 1
  73   33   72 1

#	End of record

