#	Name: ASD01918465
#	Creating user name:	WinNT
#	Creation time:	15. 06. 2019 20:11

#	Modifying user name:	WinNT
#	Modification time:	15. 06. 2019 20:11

#	Program:	/corina/corina34_cracker 3.40 0067  02.08.2006

@<TRIPOS>MOLECULE
ASD01918465
  48   50    0    0    0
SMALL
NO_CHARGES


@<TRIPOS>ATOM
   1 C1            -0.9282     1.1418     0.3341 C.3     
   2 C2             0.0008    -0.0001    -0.0832 C.3     
   3 H3             0.6431     0.3335    -0.8982 H       
   4 N4             0.8278    -0.3987     1.0585 N.am    
   5 C5             1.9448    -1.3086     0.8341 C.3     
   6 C6             3.1872    -0.9194     1.6371 C.3     
   7 C7             2.7737    -0.6040     3.0509 C.2     
   8 N8             3.4347    -0.7072     4.1926 N.2     
   9 C9             2.6587    -0.3000     5.1684 C.2     
  10 C10            3.0392    -0.2581     6.6260 C.3     
  11 O11            3.6215     1.0110     6.9300 O.3     
  12 C12            4.0227     1.2144     8.2124 C.ar    
  13 C13            3.8646     0.2111     9.1574 C.ar    
  14 C14            4.2737     0.4202    10.4602 C.ar    
  15 C15            4.8399     1.6284    10.8228 C.ar    
  16 C16            4.9981     2.6301     9.8830 C.ar    
  17 C17            4.5963     2.4237     8.5774 C.ar    
  18 O18            1.4722     0.0736     4.6641 O.3     
  19 C19            1.5227    -0.1162     3.3422 C.2     
  20 C20            0.5315     0.0946     2.2828 C.2     
  21 O21           -0.5119     0.6830     2.4968 O.2     
  22 C22           -0.8355    -1.1937    -0.5487 C.3     
  23 C23           -1.8054    -0.7415    -1.6422 C.3     
  24 C24            0.0893    -2.2787    -1.1041 C.3     
  25 C25           -1.6267    -1.7546     0.6347 C.3     
  26 H26           -0.3514     1.9094     0.8499 H       
  27 H27           -1.3954     1.5722    -0.5517 H       
  28 H28           -1.6996     0.7572     1.0012 H       
  29 H29            1.6418    -2.3161     1.1194 H       
  30 H30            2.1951    -1.3049    -0.2268 H       
  31 H31            3.8948    -1.7485     1.6400 H       
  32 H32            3.6521    -0.0417     1.1881 H       
  33 H33            2.1495    -0.4056     7.2381 H       
  34 H34            3.7600    -1.0482     6.8362 H       
  35 H35            3.4217    -0.7325     8.8748 H       
  36 H36            4.1508    -0.3606    11.1962 H       
  37 H37            5.1587     1.7900    11.8419 H       
  38 H38            5.4403     3.5731    10.1687 H       
  39 H39            4.7242     3.2049     7.8427 H       
  40 H40           -1.2418    -0.3418    -2.4852 H       
  41 H41           -2.4012    -1.5918    -1.9738 H       
  42 H42           -2.4642     0.0315    -1.2465 H       
  43 H43            0.6783    -2.7047    -0.2920 H       
  44 H44           -0.5086    -3.0625    -1.5693 H       
  45 H45            0.7569    -1.8419    -1.8468 H       
  46 H46           -2.3495    -1.0123     0.9730 H       
  47 H47           -2.1517    -2.6583     0.3251 H       
  48 H48           -0.9424    -1.9929     1.4490 H       
@<TRIPOS>BOND
   1    1    2 1
   2    1   26 1
   3    1   27 1
   4    1   28 1
   5    2    3 1
   6    2    4 1
   7    2   22 1
   8    4   20 am
   9    4    5 1
  10    5    6 1
  11    5   29 1
  12    5   30 1
  13    6    7 1
  14    6   31 1
  15    6   32 1
  16    7   19 2
  17    7    8 1
  18    8    9 2
  19    9   10 1
  20    9   18 1
  21   10   11 1
  22   10   33 1
  23   10   34 1
  24   11   12 1
  25   12   17 ar
  26   12   13 ar
  27   13   14 ar
  28   13   35 1
  29   14   15 ar
  30   14   36 1
  31   15   16 ar
  32   15   37 1
  33   16   17 ar
  34   16   38 1
  35   17   39 1
  36   18   19 1
  37   19   20 1
  38   20   21 2
  39   22   23 1
  40   22   24 1
  41   22   25 1
  42   23   40 1
  43   23   41 1
  44   23   42 1
  45   24   43 1
  46   24   44 1
  47   24   45 1
  48   25   46 1
  49   25   47 1
  50   25   48 1

#	End of record

