#	Name: ASD02198070
#	Creating user name:	WinNT
#	Creation time:	15. 06. 2019 20:18

#	Modifying user name:	WinNT
#	Modification time:	15. 06. 2019 20:18

#	Program:	/corina/corina34_cracker 3.40 0067  02.08.2006

@<TRIPOS>MOLECULE
ASD02198070
  46   47    0    0    0
SMALL
NO_CHARGES


@<TRIPOS>ATOM
   1 C1             0.0975     1.2198     0.2556 C.2     
   2 C2             0.3362    -0.1073    -0.0361 C.2     
   3 C3            -0.5411    -0.8985    -0.8454 C.1     
   4 S4             1.3353     1.8592     1.2384 S.3     
   5 C5             2.1952     0.3281     1.2656 C.2     
   6 C6             1.5073    -0.6081     0.5268 C.2     
   7 C7             3.4061     0.0936     1.9405 C.2     
   8 C8             4.0522     1.1868     2.7048 C.ar    
   9 O9             3.9246    -1.0090     1.8970 O.2     
  10 N10            1.9363    -1.9146     0.3603 N.pl3   
  11 N11           -0.9895     1.9326    -0.1910 N.pl3   
  12 N12           -1.2371    -1.5261    -1.4873 N.1     
  13 C13            5.2520     0.9482     3.3715 C.ar    
  14 C14            5.8440     1.9800     4.0818 C.ar    
  15 C15            5.2155     3.2157     4.1011 C.ar    
  16 C16            4.0235     3.3821     3.4154 C.ar    
  17 N17            3.4856     2.3867     2.7441 N.ar    
  18 C18           -1.0814     3.3706     0.0733 C.3     
  19 C19           -0.7247     4.1463    -1.1963 C.3     
  20 C20           -2.4867     3.7152     0.4943 C.2     
  21 O21           -3.3255     2.8485     0.5663 O.2     
  22 O22           -2.8066     4.9850     0.7895 O.3     
  23 C23           -4.1788     5.2436     1.1875 C.3     
  24 C24            0.7202     3.8374    -1.5937 C.3     
  25 C25            1.0261     4.4827    -2.9468 C.3     
  26 C26            1.6714     4.3982    -0.5346 C.3     
  27 H27            2.7614    -2.2108     0.7756 H       
  28 H28            1.4117    -2.5333    -0.1716 H       
  29 H29           -1.6959     1.4834    -0.6812 H       
  30 H30            5.7139    -0.0274     3.3354 H       
  31 H31            6.7739     1.8252     4.6089 H       
  32 H32            5.6509     4.0404     4.6458 H       
  33 H33            3.5313     4.3433     3.4284 H       
  34 H34           -0.3874     3.6387     0.8699 H       
  35 H35           -1.3947     3.8500    -2.0034 H       
  36 H36           -0.8299     5.2152    -1.0107 H       
  37 H37           -4.4122     4.6671     2.0827 H       
  38 H38           -4.3023     6.3061     1.3972 H       
  39 H39           -4.8521     4.9517     0.3816 H       
  40 H40            0.8540     2.7582    -1.6673 H       
  41 H41            0.8923     5.5619    -2.8732 H       
  42 H42            2.0554     4.2627    -3.2299 H       
  43 H43            0.3484     4.0832    -3.7013 H       
  44 H44            1.5049     5.4701    -0.4278 H       
  45 H45            1.4847     3.9047     0.4192 H       
  46 H46            2.7021     4.2193    -0.8407 H       
@<TRIPOS>BOND
   1    1    2 2
   2    1    4 1
   3    1   11 1
   4    2    3 1
   5    2    6 1
   6    3   12 3
   7    4    5 1
   8    5    6 2
   9    5    7 1
  10    6   10 1
  11    7    8 1
  12    7    9 2
  13    8   13 ar
  14    8   17 ar
  15   10   27 1
  16   10   28 1
  17   11   18 1
  18   11   29 1
  19   13   14 ar
  20   13   30 1
  21   14   15 ar
  22   14   31 1
  23   15   16 ar
  24   15   32 1
  25   16   17 ar
  26   16   33 1
  27   18   19 1
  28   18   20 1
  29   18   34 1
  30   19   24 1
  31   19   35 1
  32   19   36 1
  33   20   21 2
  34   20   22 1
  35   22   23 1
  36   23   37 1
  37   23   38 1
  38   23   39 1
  39   24   25 1
  40   24   26 1
  41   24   40 1
  42   25   41 1
  43   25   42 1
  44   25   43 1
  45   26   44 1
  46   26   45 1
  47   26   46 1

#	End of record

