#	Name: ASD04590079
#	Creating user name:	WinNT
#	Creation time:	15. 06. 2019 20:50

#	Modifying user name:	WinNT
#	Modification time:	15. 06. 2019 20:50

#	Program:	/corina/corina34_cracker 3.40 0067  02.08.2006

@<TRIPOS>MOLECULE
ASD04590079
  39   41    0    0    0
SMALL
NO_CHARGES


@<TRIPOS>ATOM
   1 N1            -0.0768     1.2682    -0.0494 N.pl3   
   2 N2            -0.0362    -0.0145     0.0019 N.2     
   3 C3             1.1928    -0.4418    -0.2149 C.2     
   4 C4             2.0016     0.7055    -0.4235 C.2     
   5 C5             1.1590     1.7668    -0.3103 C.2     
   6 C6             1.6417    -1.8465    -0.2361 C.2     
   7 O7             2.8101    -2.1083    -0.4485 O.2     
   8 N8             0.7570    -2.8400    -0.0200 N.am    
   9 C9             1.1615    -4.1748    -0.1363 C.ar    
  10 C10            2.4394    -4.5508     0.2561 C.ar    
  11 C11            2.8366    -5.8685     0.1404 C.ar    
  12 C12            1.9615    -6.8145    -0.3663 C.ar    
  13 C13            0.6869    -6.4416    -0.7586 C.ar    
  14 C14            0.2836    -5.1262    -0.6389 C.ar    
  15 F15            2.3520    -8.1030    -0.4786 F       
  16 N16            3.3781     0.7380    -0.6893 N.am    
  17 C17            4.0030     1.9193    -0.8642 C.2     
  18 O18            3.3729     2.9574    -0.7915 O.2     
  19 C19            5.4483     1.9533    -1.1433 C.2     
  20 N20            6.2381     0.9032    -1.2466 N.2     
  21 C21            7.4808     1.3119    -1.5039 C.2     
  22 C22            7.4781     2.6724    -1.5661 C.2     
  23 N23            6.1964     3.0782    -1.3447 N.pl3   
  24 C24            5.7125     4.4608    -1.3232 C.3     
  25 N25            8.5984     0.4834    -1.6804 N.pl3   
  26 H26           -0.8759     1.8035     0.0760 H       
  27 H27            1.4228     2.8094    -0.4092 H       
  28 H28           -0.1601    -2.6299     0.2161 H       
  29 H29            3.1224    -3.8132     0.6510 H       
  30 H30            3.8305    -6.1613     0.4452 H       
  31 H31            0.0060    -7.1809    -1.1539 H       
  32 H32           -0.7122    -4.8367    -0.9405 H       
  33 H33            3.8805    -0.0897    -0.7473 H       
  34 H34            8.3294     3.3085    -1.7588 H       
  35 H35            5.7858     4.8557    -0.3098 H       
  36 H36            6.3189     5.0685    -1.9947 H       
  37 H37            4.6726     4.4869    -1.6489 H       
  38 H38            8.5028    -0.4798    -1.6180 H       
  39 H39            9.4671     0.8736    -1.8647 H       
@<TRIPOS>BOND
   1    1    2 1
   2    1    5 1
   3    1   26 1
   4    2    3 2
   5    3    4 1
   6    3    6 1
   7    4    5 2
   8    4   16 1
   9    5   27 1
  10    6    7 2
  11    6    8 am
  12    8    9 1
  13    8   28 1
  14    9   10 ar
  15    9   14 ar
  16   10   11 ar
  17   10   29 1
  18   11   12 ar
  19   11   30 1
  20   12   13 ar
  21   12   15 1
  22   13   14 ar
  23   13   31 1
  24   14   32 1
  25   16   17 am
  26   16   33 1
  27   17   18 2
  28   17   19 1
  29   19   20 2
  30   19   23 1
  31   20   21 1
  32   21   22 2
  33   21   25 1
  34   22   23 1
  35   22   34 1
  36   23   24 1
  37   24   35 1
  38   24   36 1
  39   24   37 1
  40   25   38 1
  41   25   39 1

#	End of record

