#	Name: ASD01880494
#	Creating user name:	WinNT
#	Creation time:	15. 06. 2019 19:40

#	Modifying user name:	WinNT
#	Modification time:	15. 06. 2019 19:40

#	Program:	/corina/corina34_cracker 3.40 0067  02.08.2006

@<TRIPOS>MOLECULE
ASD01880494
  38   40    0    0    0
SMALL
NO_CHARGES


@<TRIPOS>ATOM
   1 N1            -0.0158     1.3150     0.0093 N.ar    
   2 C2             0.0021    -0.0041     0.0020 C.ar    
   3 N3             1.1335    -0.6823    -0.0120 N.ar    
   4 C4             2.2991    -0.0558    -0.0197 C.ar    
   5 C5             2.3200     1.3299    -0.0130 C.ar    
   6 C6             1.1114     2.0081     0.0022 C.ar    
   7 C7             3.6262     2.0816    -0.0209 C.3     
   8 O8             4.0269     2.3260    -1.3706 O.3     
   9 C9             5.1914     2.9980    -1.5555 C.ar    
  10 C10            5.6402     3.2694    -2.8444 C.ar    
  11 C11            6.8181     3.9496    -3.0300 C.ar    
  12 C12            7.5720     4.3727    -1.9303 C.ar    
  13 C13            7.1164     4.0979    -0.6379 C.ar    
  14 C14            5.9316     3.4194    -0.4574 C.ar    
  15 C15            7.5706     4.3953    -4.2589 C.3     
  16 N16            8.7734     5.0831    -3.7758 N.am    
  17 C17            8.7701     5.0678    -2.4318 C.2     
  18 O18            9.6332     5.5582    -1.7298 O.2     
  19 Cl19          -1.5025    -0.8700     0.0117 Cl      
  20 C20           10.5284     7.7775    -5.7823 C.3     
  21 C21            9.4481     7.1471    -4.9012 C.3     
  22 C22            9.8077     5.6868    -4.6195 C.3     
  23 H23            3.2218    -0.6170    -0.0309 H       
  24 H24            1.0899     3.0878     0.0075 H       
  25 H25            3.5018     3.0316     0.4989 H       
  26 H26            4.3896     1.4889     0.4831 H       
  27 H27            5.0629     2.9450    -3.6975 H       
  28 H28            7.6911     4.4198     0.2179 H       
  29 H29            5.5800     3.2076     0.5416 H       
  30 H30            7.8498     3.5309    -4.8614 H       
  31 H31            6.9579     5.0796    -4.8458 H       
  32 H32           11.4885     7.7324    -5.2683 H       
  33 H33           10.5941     7.2315    -6.7234 H       
  34 H34           10.2722     8.8178    -5.9829 H       
  35 H35            9.3824     7.6931    -3.9601 H       
  36 H36            8.4880     7.1921    -5.4152 H       
  37 H37           10.7679     5.6417    -4.1055 H       
  38 H38            9.8734     5.1408    -5.5606 H       
@<TRIPOS>BOND
   1    1    2 ar
   2    1    6 ar
   3    2    3 ar
   4    2   19 1
   5    3    4 ar
   6    4    5 ar
   7    4   23 1
   8    5    6 ar
   9    5    7 1
  10    6   24 1
  11    7    8 1
  12    7   25 1
  13    7   26 1
  14    8    9 1
  15    9   10 ar
  16    9   14 ar
  17   10   11 ar
  18   10   27 1
  19   11   12 ar
  20   11   15 1
  21   12   13 ar
  22   12   17 1
  23   13   14 ar
  24   13   28 1
  25   14   29 1
  26   15   16 1
  27   15   30 1
  28   15   31 1
  29   16   17 am
  30   16   22 1
  31   17   18 2
  32   20   21 1
  33   20   32 1
  34   20   33 1
  35   20   34 1
  36   21   22 1
  37   21   35 1
  38   21   36 1
  39   22   37 1
  40   22   38 1

#	End of record

