#	Name: ASD03540290
#	Creating user name:	WinNT
#	Creation time:	15. 06. 2019 20:42

#	Modifying user name:	WinNT
#	Modification time:	15. 06. 2019 20:42

#	Program:	/corina/corina34_cracker 3.40 0067  02.08.2006

@<TRIPOS>MOLECULE
ASD03540290
  39   41    0    0    0
SMALL
NO_CHARGES


@<TRIPOS>ATOM
   1 C1             0.1294     1.4669     0.1595 C.2     
   2 C2             0.1106    -0.0062     0.1111 C.ar    
   3 C3             0.2736    -0.6739    -1.1113 C.ar    
   4 C4             0.2541    -2.0600    -1.1447 C.ar    
   5 C5             0.0745    -2.7782     0.0210 C.ar    
   6 C6            -0.0870    -2.1226     1.2305 C.ar    
   7 C7            -0.0641    -0.7457     1.2837 C.ar    
   8 O8             0.2865     2.1064    -0.8617 O.2     
   9 O9            -0.0332     2.1045     1.3354 O.3     
  10 O10            0.4491     0.0329    -2.2556 O.3     
  11 C11            0.0534    -4.2844    -0.0231 C.3     
  12 C12           -0.4980    -5.6425     1.9106 C.2     
  13 N13           -1.3337    -6.1359     2.8356 N.am    
  14 C14           -2.6722    -5.7860     2.8558 C.2     
  15 C15           -3.1548    -4.9048     1.8956 C.2     
  16 C16           -2.1927    -4.3885     0.8963 C.2     
  17 N17           -0.9091    -4.7883     0.9598 N.am    
  18 C18           -4.5193    -4.6405     2.0340 C.2     
  19 C19           -5.1054    -5.2809     3.0594 C.2     
  20 S20           -3.9282    -6.2657     3.9096 S.3     
  21 O21           -2.5566    -3.6141     0.0310 O.2     
  22 O22            0.6710    -5.9756     1.9366 O.2     
  23 C23           -0.3565    -4.7480    -1.4223 C.3     
  24 C24           -6.5220    -5.1726     3.4158 C.2     
  25 N25           -7.0067    -5.8615     4.4679 N.am    
  26 O26           -7.2615    -4.4604     2.7619 O.2     
  27 H27            0.3793    -2.5786    -2.0838 H       
  28 H28           -0.2272    -2.6932     2.1366 H       
  29 H29           -0.1855    -0.2389     2.2296 H       
  30 H30           -0.0135     3.0712     1.3171 H       
  31 H31            1.3744     0.2228    -2.4626 H       
  32 H32            1.0463    -4.6687     0.2107 H       
  33 H33           -0.9932    -6.7509     3.5039 H       
  34 H34           -5.0575    -3.9773     1.3731 H       
  35 H35           -0.3718    -5.8374    -1.4542 H       
  36 H36           -1.3494    -4.3637    -1.6561 H       
  37 H37            0.3596    -4.3731    -2.1536 H       
  38 H38           -6.4175    -6.4291     4.9891 H       
  39 H39           -7.9448    -5.7898     4.7040 H       
@<TRIPOS>BOND
   1    1    2 1
   2    1    8 2
   3    1    9 1
   4    2    3 ar
   5    2    7 ar
   6    3    4 ar
   7    3   10 1
   8    4    5 ar
   9    4   27 1
  10    5    6 ar
  11    5   11 1
  12    6    7 ar
  13    6   28 1
  14    7   29 1
  15    9   30 1
  16   10   31 1
  17   11   17 1
  18   11   23 1
  19   11   32 1
  20   12   13 am
  21   12   17 am
  22   12   22 2
  23   13   14 1
  24   13   33 1
  25   14   15 2
  26   14   20 1
  27   15   16 1
  28   15   18 1
  29   16   17 am
  30   16   21 2
  31   18   19 2
  32   18   34 1
  33   19   20 1
  34   19   24 1
  35   23   35 1
  36   23   36 1
  37   23   37 1
  38   24   25 am
  39   24   26 2
  40   25   38 1
  41   25   39 1

#	End of record

