#	Name: ASD01150310
#	Creating user name:	WinNT
#	Creation time:	15. 06. 2019 19:04

#	Modifying user name:	WinNT
#	Modification time:	15. 06. 2019 19:04

#	Program:	/corina/corina34_cracker 3.40 0067  02.08.2006

@<TRIPOS>MOLECULE
ASD01150310
  63   65    0    0    0
SMALL
NO_CHARGES


@<TRIPOS>ATOM
   1 N1            -0.0010     1.2854     1.1019 N.pl3   
   2 C2             0.0139    -0.0821     0.8180 C.2     
   3 C3            -1.3166    -0.4809     0.7846 C.2     
   4 N4            -2.0707     0.5931     1.0350 N.2     
   5 C5            -1.3054     1.6464     1.2305 C.2     
   6 C6             1.1478    -0.8925     0.6078 C.2     
   7 C7             1.1142     2.1229     1.2347 C.ar    
   8 C8             1.3221     3.1535     0.3277 C.ar    
   9 C9             2.4225     3.9775     0.4612 C.ar    
  10 C10            3.3166     3.7769     1.4968 C.ar    
  11 C11            3.1123     2.7514     2.4017 C.ar    
  12 C12            2.0107     1.9276     2.2768 C.ar    
  13 N13           -1.7557     2.9155     1.5125 N.3     
  14 C14           -3.2231     2.9530     1.5694 C.3     
  15 C15           -1.1674     3.4174     2.7615 C.3     
  16 O16            1.0124    -2.0785     0.3671 O.2     
  17 O17            2.3844    -0.3536     0.6733 O.3     
  18 C18            3.4881    -1.2334     0.4498 C.3     
  19 C19            3.3789    -1.8433    -0.9491 C.3     
  20 C20            4.7967    -0.4489     0.5635 C.3     
  21 C21            3.4702    -2.3499     1.4958 C.3     
  22 N22           -1.7801    -1.7670     0.5353 N.am    
  23 C23           -3.1044    -2.0172     0.5324 C.2     
  24 C24           -3.5973    -3.3847     0.2673 C.ar    
  25 O25           -3.8934    -1.1179     0.7479 O.2     
  26 C26           -2.6954    -4.4435     0.1457 C.ar    
  27 C27           -3.1617    -5.7177    -0.1018 C.ar    
  28 C28           -4.5210    -5.9479    -0.2298 C.ar    
  29 C29           -5.4207    -4.9016    -0.1102 C.ar    
  30 C30           -4.9674    -3.6243     0.1430 C.ar    
  31 C31           -5.9477    -2.4871     0.2728 C.3     
  32 Br32          -5.1518    -7.6979    -0.5697 Br      
  33 O33            5.9004    -1.3287     0.3400 O.3     
  34 C34            7.1772    -0.6924     0.4241 C.3     
  35 H35            0.6243     3.3104    -0.4816 H       
  36 H36            2.5850     4.7790    -0.2442 H       
  37 H37            4.1765     4.4223     1.5989 H       
  38 H38            3.8126     2.5971     3.2092 H       
  39 H39            1.8515     1.1271     2.9841 H       
  40 H40           -3.5739     2.2765     2.3487 H       
  41 H41           -3.5522     3.9676     1.7938 H       
  42 H42           -3.6320     2.6427     0.6078 H       
  43 H43           -0.0819     3.4446     2.6667 H       
  44 H44           -1.5401     4.4221     2.9606 H       
  45 H45           -1.4438     2.7577     3.5841 H       
  46 H46            3.3917    -1.0479    -1.6943 H       
  47 H47            4.2208    -2.5144    -1.1196 H       
  48 H48            2.4466    -2.4022    -1.0301 H       
  49 H49            4.8094     0.3465    -0.1817 H       
  50 H50            4.8744    -0.0144     1.5601 H       
  51 H51            2.5379    -2.9088     1.4148 H       
  52 H52            4.3121    -3.0209     1.3253 H       
  53 H53            3.5480    -1.9153     2.4924 H       
  54 H54           -1.1505    -2.4846     0.3633 H       
  55 H55           -1.6349    -4.2651     0.2449 H       
  56 H56           -2.4651    -6.5375    -0.1965 H       
  57 H57           -6.4798    -5.0874    -0.2113 H       
  58 H58           -6.1610    -2.3099     1.3270 H       
  59 H59           -5.5198    -1.5865    -0.1677 H       
  60 H60           -6.8712    -2.7423    -0.2469 H       
  61 H61            7.2393     0.0980    -0.3239 H       
  62 H62            7.3043    -0.2629     1.4179 H       
  63 H63            7.9618    -1.4269     0.2427 H       
@<TRIPOS>BOND
   1    1    2 1
   2    1    7 1
   3    1    5 1
   4    2    3 2
   5    2    6 1
   6    3    4 1
   7    3   22 1
   8    4    5 2
   9    5   13 1
  10    6   16 2
  11    6   17 1
  12    7    8 ar
  13    7   12 ar
  14    8    9 ar
  15    8   35 1
  16    9   10 ar
  17    9   36 1
  18   10   11 ar
  19   10   37 1
  20   11   12 ar
  21   11   38 1
  22   12   39 1
  23   13   14 1
  24   13   15 1
  25   14   40 1
  26   14   41 1
  27   14   42 1
  28   15   43 1
  29   15   44 1
  30   15   45 1
  31   17   18 1
  32   18   19 1
  33   18   20 1
  34   18   21 1
  35   19   46 1
  36   19   47 1
  37   19   48 1
  38   20   33 1
  39   20   49 1
  40   20   50 1
  41   21   51 1
  42   21   52 1
  43   21   53 1
  44   22   23 am
  45   22   54 1
  46   23   24 1
  47   23   25 2
  48   24   26 ar
  49   24   30 ar
  50   26   27 ar
  51   26   55 1
  52   27   28 ar
  53   27   56 1
  54   28   29 ar
  55   28   32 1
  56   29   30 ar
  57   29   57 1
  58   30   31 1
  59   31   58 1
  60   31   59 1
  61   31   60 1
  62   33   34 1
  63   34   61 1
  64   34   62 1
  65   34   63 1

#	End of record

