#	Name: ASD01910385
#	Creating user name:	WinNT
#	Creation time:	15. 06. 2019 19:55

#	Modifying user name:	WinNT
#	Modification time:	15. 06. 2019 19:55

#	Program:	/corina/corina34_cracker 3.40 0067  02.08.2006

@<TRIPOS>MOLECULE
ASD01910385
  62   65    0    0    0
SMALL
NO_CHARGES


@<TRIPOS>ATOM
   1 C1            -0.0330     1.4270    -0.1410 C.ar    
   2 C2            -0.0110    -0.0047    -0.1229 C.1     
   3 C3             0.0071    -1.1785    -0.1081 C.1     
   4 C4             0.0292    -2.6102    -0.0900 C.ar    
   5 C5             0.7019    -3.3127    -1.0960 C.ar    
   6 C6             0.7230    -4.6781    -1.0779 C.ar    
   7 C7             0.0722    -5.3740    -0.0548 C.ar    
   8 C8            -0.6006    -4.6729     0.9504 C.ar    
   9 C9            -0.6172    -3.3073     0.9369 C.ar    
  10 C10            0.0949    -6.8500    -0.0362 C.2     
  11 O11           -0.9425    -7.4725     0.0843 O.2     
  12 N12            1.2657    -7.5075    -0.1526 N.am    
  13 C13           -0.7041     2.1318     0.8623 C.ar    
  14 C14           -0.7210     3.5105     0.8382 C.ar    
  15 C15           -0.0762     4.1963    -0.1762 C.ar    
  16 C16            0.5903     3.5054    -1.1730 C.ar    
  17 C17            0.6212     2.1266    -1.1588 C.ar    
  18 C18            1.3147    -8.9725    -0.0528 C.3     
  19 C19            2.3451    -9.3600     1.0125 C.3     
  20 C20            3.6885    -8.7074     0.6782 C.3     
  21 C21            3.5341    -7.1849     0.6867 C.3     
  22 C22            2.5164    -6.7732    -0.3879 C.3     
  23 N23            4.6877    -9.1036     1.6795 N.3     
  24 C24            6.0466    -9.0243     1.1273 C.3     
  25 C25            7.0571    -9.4434     2.1969 C.3     
  26 N26            8.4160    -9.3640     1.6447 N.3     
  27 C27            9.4246    -9.5278     2.7016 C.3     
  28 C28           10.8214    -9.4983     2.0756 C.3     
  29 O29           10.9886    -8.2758     1.3525 O.3     
  30 C30           10.0233    -8.0841     0.3148 C.3     
  31 C31            8.6184    -8.0992     0.9230 C.3     
  32 H32            1.2041    -2.7752    -1.8868 H       
  33 H33            1.2422    -5.2204    -1.8543 H       
  34 H34           -1.1037    -5.2111     1.7400 H       
  35 H35           -1.1369    -2.7658     1.7135 H       
  36 H36           -1.2084     1.5979     1.6542 H       
  37 H37           -1.2391     4.0565     1.6127 H       
  38 H38           -0.0934     5.2760    -0.1903 H       
  39 H39            1.0910     4.0473    -1.9617 H       
  40 H40            1.1417     1.5888    -1.9373 H       
  41 H41            0.3337    -9.3523     0.2325 H       
  42 H42            1.6068    -9.3947    -1.0144 H       
  43 H43            2.0061    -9.0148     1.9892 H       
  44 H44            2.4612   -10.4436     1.0292 H       
  45 H45            4.0150    -9.0338    -0.3092 H       
  46 H46            3.1839    -6.8602     1.6665 H       
  47 H47            4.4965    -6.7204     0.4715 H       
  48 H48            2.9089    -7.0163    -1.3753 H       
  49 H49            2.3277    -5.7017    -0.3211 H       
  50 H50            4.6037    -8.5443     2.5151 H       
  51 H51            6.1293    -9.6904     0.2685 H       
  52 H52            6.2523    -8.0006     0.8143 H       
  53 H53            6.9744    -8.7772     3.0557 H       
  54 H54            6.8513   -10.4670     2.5099 H       
  55 H55            9.3316    -8.7155     3.4225 H       
  56 H56            9.2718   -10.4820     3.2059 H       
  57 H57           11.5740    -9.5621     2.8616 H       
  58 H58           10.9330   -10.3421     1.3947 H       
  59 H59           10.1985    -7.1251    -0.1727 H       
  60 H60           10.1116    -8.8868    -0.4173 H       
  61 H61            7.8770    -8.0107     0.1289 H       
  62 H62            8.5125    -7.2641     1.6154 H       
@<TRIPOS>BOND
   1    1    2 1
   2    1   13 ar
   3    1   17 ar
   4    2    3 3
   5    3    4 1
   6    4    5 ar
   7    4    9 ar
   8    5    6 ar
   9    5   32 1
  10    6    7 ar
  11    6   33 1
  12    7    8 ar
  13    7   10 1
  14    8    9 ar
  15    8   34 1
  16    9   35 1
  17   10   11 2
  18   10   12 am
  19   12   18 1
  20   12   22 1
  21   13   14 ar
  22   13   36 1
  23   14   15 ar
  24   14   37 1
  25   15   16 ar
  26   15   38 1
  27   16   17 ar
  28   16   39 1
  29   17   40 1
  30   18   19 1
  31   18   41 1
  32   18   42 1
  33   19   20 1
  34   19   43 1
  35   19   44 1
  36   20   21 1
  37   20   23 1
  38   20   45 1
  39   21   22 1
  40   21   46 1
  41   21   47 1
  42   22   48 1
  43   22   49 1
  44   23   24 1
  45   23   50 1
  46   24   25 1
  47   24   51 1
  48   24   52 1
  49   25   26 1
  50   25   53 1
  51   25   54 1
  52   26   27 1
  53   26   31 1
  54   27   28 1
  55   27   55 1
  56   27   56 1
  57   28   29 1
  58   28   57 1
  59   28   58 1
  60   29   30 1
  61   30   31 1
  62   30   59 1
  63   30   60 1
  64   31   61 1
  65   31   62 1

#	End of record

