#	Name: ASD01913810
#	Creating user name:	WinNT
#	Creation time:	15. 06. 2019 20:02

#	Modifying user name:	WinNT
#	Modification time:	15. 06. 2019 20:02

#	Program:	/corina/corina34_cracker 3.40 0067  02.08.2006

@<TRIPOS>MOLECULE
ASD01913810
  35   38    0    0    0
SMALL
NO_CHARGES


@<TRIPOS>ATOM
   1 C1            -0.0229     1.4277    -0.0307 C.ar    
   2 C2            -0.0019    -0.0041    -0.0265 C.1     
   3 C3             0.0153    -1.1780    -0.0231 C.1     
   4 C4             0.0364    -2.6098    -0.0188 C.ar    
   5 C5            -1.1345    -3.3385     0.2390 C.ar    
   6 C6             0.1560    -5.3344    -0.0290 C.ar    
   7 N7             1.2432    -4.6188    -0.2746 N.ar    
   8 C8             1.2215    -3.3021    -0.2770 C.ar    
   9 C9            -1.0637    -4.7170     0.2316 C.ar    
  10 N10            0.2331    -6.7251    -0.0385 N.am    
  11 C11           -0.8129    -7.5645    -0.0339 C.2     
  12 O12           -0.4682    -8.8597    -0.0457 O.3     
  13 C13            0.9779    -8.9654    -0.0604 C.3     
  14 C14            1.4767    -7.5141    -0.0617 C.3     
  15 O15           -1.9673    -7.1855    -0.0202 O.2     
  16 C16            1.1421     2.1549    -0.2873 C.ar    
  17 N17            1.1218     3.4715    -0.2914 N.ar    
  18 C18            0.0164     4.1523    -0.0568 C.ar    
  19 C19           -1.1790     3.5067     0.2057 C.ar    
  20 C20           -1.2140     2.1240     0.2167 C.ar    
  21 C21            1.7170   -10.0645     0.6913 C.3     
  22 C22            1.7023   -10.0547    -0.8400 C.3     
  23 H23           -2.0679    -2.8333     0.4386 H       
  24 H24            2.1286    -2.7525    -0.4810 H       
  25 H25           -1.9451    -5.3100     0.4263 H       
  26 H26            2.0526    -7.3068    -0.9636 H       
  27 H27            2.0706    -7.3113     0.8295 H       
  28 H28            2.0670     1.6329    -0.4834 H       
  29 H29            0.0451     5.2318    -0.0696 H       
  30 H30           -2.0763     4.0766     0.3964 H       
  31 H31           -2.1334     1.5947     0.4187 H       
  32 H32            2.6494    -9.7957     1.1878 H       
  33 H33            1.1163   -10.8212     1.1959 H       
  34 H34            1.0919   -10.8050    -1.3426 H       
  35 H35            2.6251    -9.7795    -1.3507 H       
@<TRIPOS>BOND
   1    1    2 1
   2    1   16 ar
   3    1   20 ar
   4    2    3 3
   5    3    4 1
   6    4    5 ar
   7    4    8 ar
   8    5    9 ar
   9    5   23 1
  10    6    7 ar
  11    6   10 1
  12    6    9 ar
  13    7    8 ar
  14    8   24 1
  15    9   25 1
  16   10   11 am
  17   10   14 1
  18   11   12 1
  19   11   15 2
  20   12   13 1
  21   13   14 1
  22   13   21 1
  23   13   22 1
  24   14   26 1
  25   14   27 1
  26   16   17 ar
  27   16   28 1
  28   17   18 ar
  29   18   19 ar
  30   18   29 1
  31   19   20 ar
  32   19   30 1
  33   20   31 1
  34   21   22 1
  35   21   32 1
  36   21   33 1
  37   22   34 1
  38   22   35 1

#	End of record

