#	Name: ASD01814890
#	Creating user name:	WinNT
#	Creation time:	15. 06. 2019 19:33

#	Modifying user name:	WinNT
#	Modification time:	15. 06. 2019 19:33

#	Program:	/corina/corina34_cracker 3.40 0067  02.08.2006

@<TRIPOS>MOLECULE
ASD01814890
  58   61    0    0    0
SMALL
NO_CHARGES


@<TRIPOS>ATOM
   1 C1            -0.8818    -0.2791     1.0178 C.2     
   2 C2            -0.5630    -1.6249     0.7914 C.2     
   3 C3             0.7440    -1.9919     0.6568 C.2     
   4 C4             1.7486    -1.0141     0.7474 C.2     
   5 N5             1.4088     0.2927     0.9694 N.am    
   6 C6             0.0991     0.6478     1.1020 C.2     
   7 C7             3.0926    -1.3887     0.6095 C.2     
   8 C8             4.0763    -0.4468     0.6962 C.2     
   9 C9             3.7231     0.8962     0.9241 C.2     
  10 C10            2.3628     1.2413     1.0588 C.2     
  11 O11            2.0477     2.4027     1.2560 O.2     
  12 C12            4.7597     1.9262     1.0217 C.2     
  13 O13            4.4146     3.2118     1.2402 O.3     
  14 O14            5.9318     1.6224     0.9058 O.2     
  15 C15            3.4511    -2.8321     0.3659 C.3     
  16 N16            3.6033    -3.0620    -1.0770 N.3     
  17 C17            4.1806    -4.3874    -1.3411 C.3     
  18 C18            4.2488    -4.6192    -2.8524 C.3     
  19 N19            5.0601    -3.5618    -3.4714 N.3     
  20 C20            4.4828    -2.2364    -3.2074 C.3     
  21 C21            4.4146    -2.0045    -1.6961 C.3     
  22 H22            5.1847    -4.4371    -0.9198 H       
  23 C23            5.2051    -3.7808    -4.8462 C.ar    
  24 C24            6.3788    -4.3275    -5.3431 C.ar    
  25 C25            4.1684    -3.4556    -5.7187 C.ar    
  26 C26            4.3172    -3.6749    -7.0777 C.ar    
  27 C27            5.4928    -4.2156    -7.5668 C.ar    
  28 C28            6.5195    -4.5434    -6.7015 C.ar    
  29 C29            4.8869    -5.9815    -3.1315 C.3     
  30 C30            2.8357    -4.5873    -3.4380 C.3     
  31 O31            3.0129    -2.9244    -5.2365 O.3     
  32 C32            1.9936    -2.6156    -6.1892 C.3     
  33 H33           -1.9146     0.0193     1.1209 H       
  34 H34           -1.3460    -2.3658     0.7244 H       
  35 H35            1.0042    -3.0255     0.4824 H       
  36 H36           -0.1580     1.6820     1.2769 H       
  37 H37            5.1136    -0.7288     0.5916 H       
  38 H38            5.1337     3.8559     1.2971 H       
  39 H39            4.3884    -3.0640     0.8717 H       
  40 H40            2.6601    -3.4735     0.7546 H       
  41 H41            3.5555    -5.1540    -0.8834 H       
  42 H42            5.1079    -1.4697    -3.6651 H       
  43 H43            3.4787    -2.1866    -3.6286 H       
  44 H44            3.9600    -1.0340    -1.4972 H       
  45 H45            5.4213    -2.0272    -1.2789 H       
  46 H46            7.1829    -4.5842    -4.6693 H       
  47 H47            3.5152    -3.4241    -7.7561 H       
  48 H48            5.6068    -4.3863    -8.6271 H       
  49 H49            7.4355    -4.9653    -7.0879 H       
  50 H50            4.3477    -6.7544    -2.5837 H       
  51 H51            4.8393    -6.1930    -4.1997 H       
  52 H52            5.9283    -5.9677    -2.8098 H       
  53 H53            2.4141    -3.5897    -3.3154 H       
  54 H54            2.8761    -4.8370    -4.4982 H       
  55 H55            2.2103    -5.3126    -2.9175 H       
  56 H56            2.3742    -1.8874    -6.9054 H       
  57 H57            1.7010    -3.5241    -6.7156 H       
  58 H58            1.1280    -2.1998    -5.6734 H       
@<TRIPOS>BOND
   1    1    2 1
   2    1    6 2
   3    1   33 1
   4    2    3 2
   5    2   34 1
   6    3    4 1
   7    3   35 1
   8    4    5 1
   9    4    7 2
  10    5    6 1
  11    5   10 am
  12    6   36 1
  13    7   15 1
  14    7    8 1
  15    8    9 2
  16    8   37 1
  17    9   10 1
  18    9   12 1
  19   10   11 2
  20   12   13 1
  21   12   14 2
  22   13   38 1
  23   15   16 1
  24   15   39 1
  25   15   40 1
  26   16   17 1
  27   16   21 1
  28   17   18 1
  29   17   22 1
  30   17   41 1
  31   18   19 1
  32   18   29 1
  33   18   30 1
  34   19   20 1
  35   19   23 1
  36   20   21 1
  37   20   42 1
  38   20   43 1
  39   21   44 1
  40   21   45 1
  41   23   24 ar
  42   23   25 ar
  43   24   28 ar
  44   24   46 1
  45   25   26 ar
  46   25   31 1
  47   26   27 ar
  48   26   47 1
  49   27   28 ar
  50   27   48 1
  51   28   49 1
  52   29   50 1
  53   29   51 1
  54   29   52 1
  55   30   53 1
  56   30   54 1
  57   30   55 1
  58   31   32 1
  59   32   56 1
  60   32   57 1
  61   32   58 1

#	End of record

