#	Name: ASD01916185
#	Creating user name:	WinNT
#	Creation time:	15. 06. 2019 20:06

#	Modifying user name:	WinNT
#	Modification time:	15. 06. 2019 20:06

#	Program:	/corina/corina34_cracker 3.40 0067  02.08.2006

@<TRIPOS>MOLECULE
ASD01916185
  41   43    0    0    0
SMALL
NO_CHARGES


@<TRIPOS>ATOM
   1 C1            -0.0525     1.3001    -0.0602 C.ar    
   2 C2            -0.0396    -0.0785     0.0818 C.ar    
   3 C3            -1.2253    -0.7764     0.2292 C.ar    
   4 C4            -2.4293    -0.1044     0.2364 C.ar    
   5 C5            -2.4517     1.2862     0.0943 C.ar    
   6 C6            -1.2513     1.9868    -0.0491 C.ar    
   7 F7             1.1095     1.9741    -0.2041 F       
   8 C8            -3.6988     1.9900     0.1009 C.1     
   9 C9            -4.7213     2.5669     0.1063 C.1     
  10 C10           -5.9684     3.2707     0.1129 C.ar    
  11 N11           -5.9769     4.5949    -0.0233 N.ar    
  12 C12           -7.0991     5.2801    -0.0231 C.ar    
  13 C13           -8.3283     4.6318     0.1219 C.ar    
  14 C14           -8.3523     3.2367     0.2674 C.ar    
  15 C15           -7.1638     2.5575     0.2566 C.ar    
  16 C16           -9.5856     5.4051     0.1225 C.2     
  17 O17           -9.6490     6.4620     0.7202 O.2     
  18 N18          -10.6633     4.9397    -0.5396 N.am    
  19 C19          -10.5671     3.7322    -1.3712 C.3     
  20 C20          -11.0858     4.0580    -2.7754 C.3     
  21 C21          -12.4980     4.6386    -2.6712 C.3     
  22 C22          -12.4599     5.9343    -1.8577 C.3     
  23 C23          -11.9582     5.6266    -0.4387 C.3     
  24 O24          -12.9975     4.9136    -3.9815 O.3     
  25 H25            0.9002    -0.6105     0.0769 H       
  26 H26           -1.2076    -1.8507     0.3386 H       
  27 H27           -3.3535    -0.6513     0.3513 H       
  28 H28           -1.2610     3.0611    -0.1593 H       
  29 H29           -7.0704     6.3538    -0.1358 H       
  30 H30           -9.2881     2.7097     0.3813 H       
  31 H31           -7.1483     1.4832     0.3663 H       
  32 H32           -9.5270     3.4117    -1.4311 H       
  33 H33          -11.1717     2.9380    -0.9335 H       
  34 H34          -10.4266     4.7869    -3.2467 H       
  35 H35          -11.1100     3.1477    -3.3745 H       
  36 H36          -13.1510     3.9189    -2.1775 H       
  37 H37          -11.7878     6.6456    -2.3377 H       
  38 H38          -13.4621     6.3595    -1.8037 H       
  39 H39          -12.6779     4.9876     0.0729 H       
  40 H40          -11.8345     6.5573     0.1150 H       
  41 H41          -13.8904     5.2846    -3.9922 H       
@<TRIPOS>BOND
   1    1    2 ar
   2    1    7 1
   3    1    6 ar
   4    2    3 ar
   5    2   25 1
   6    3    4 ar
   7    3   26 1
   8    4    5 ar
   9    4   27 1
  10    5    6 ar
  11    5    8 1
  12    6   28 1
  13    8    9 3
  14    9   10 1
  15   10   11 ar
  16   10   15 ar
  17   11   12 ar
  18   12   13 ar
  19   12   29 1
  20   13   14 ar
  21   13   16 1
  22   14   15 ar
  23   14   30 1
  24   15   31 1
  25   16   17 2
  26   16   18 am
  27   18   19 1
  28   18   23 1
  29   19   20 1
  30   19   32 1
  31   19   33 1
  32   20   21 1
  33   20   34 1
  34   20   35 1
  35   21   22 1
  36   21   24 1
  37   21   36 1
  38   22   23 1
  39   22   37 1
  40   22   38 1
  41   23   39 1
  42   23   40 1
  43   24   41 1

#	End of record

