#	Name: ASD01900458
#	Creating user name:	WinNT
#	Creation time:	15. 06. 2019 19:51

#	Modifying user name:	WinNT
#	Modification time:	15. 06. 2019 19:51

#	Program:	/corina/corina34_cracker 3.40 0067  02.08.2006

@<TRIPOS>MOLECULE
ASD01900458
  26   28    0    0    0
SMALL
NO_CHARGES


@<TRIPOS>ATOM
   1 C1            -0.0263     1.3950     0.1277 C.ar    
   2 C2             0.0064     0.0001    -0.0612 C.ar    
   3 C3             1.2229    -0.6709     0.0549 C.ar    
   4 C4             2.3524     0.0695     0.3527 C.ar    
   5 C5             2.2454     1.4456     0.5262 C.ar    
   6 N6             1.0903     2.0604     0.4133 N.ar    
   7 N7            -2.1145     0.7216    -0.3260 N.2     
   8 N8            -1.2753    -0.3973    -0.3374 N.pl3   
   9 C9            -1.4238     1.7962    -0.0516 C.2     
  10 N10           -1.9269     3.0973     0.0450 N.pl3   
  11 F11            3.5519    -0.5399     0.4749 F       
  12 C12           -3.3041     3.3223    -0.0404 C.ar    
  13 C13           -4.1963     2.3410     0.3730 C.ar    
  14 C14           -5.5570     2.5660     0.2880 C.ar    
  15 C15           -6.0313     3.7697    -0.2097 C.ar    
  16 C16           -5.1434     4.7483    -0.6219 C.ar    
  17 C17           -3.7822     4.5296    -0.5333 C.ar    
  18 F18           -7.3619     3.9878    -0.2929 F       
  19 Cl19          -6.6730     1.3406     0.8041 Cl      
  20 H20            1.2816    -1.7404    -0.0837 H       
  21 H21            3.1300     2.0199     0.7590 H       
  22 H22           -1.5559    -1.3090    -0.5133 H       
  23 H23           -1.3204     3.8437     0.1713 H       
  24 H24           -3.8267     1.4029     0.7600 H       
  25 H25           -5.5151     5.6854    -1.0093 H       
  26 H26           -3.0902     5.2955    -0.8510 H       
@<TRIPOS>BOND
   1    1    2 ar
   2    1    6 ar
   3    1    9 1
   4    2    3 ar
   5    2    8 1
   6    3    4 ar
   7    3   20 1
   8    4    5 ar
   9    4   11 1
  10    5    6 ar
  11    5   21 1
  12    7    8 1
  13    7    9 2
  14    8   22 1
  15    9   10 1
  16   10   12 1
  17   10   23 1
  18   12   13 ar
  19   12   17 ar
  20   13   14 ar
  21   13   24 1
  22   14   15 ar
  23   14   19 1
  24   15   16 ar
  25   15   18 1
  26   16   17 ar
  27   16   25 1
  28   17   26 1

#	End of record

