#	Name: ASD08070609
#	Creating user name:	WinNT
#	Creation time:	15. 06. 2019 21:15

#	Modifying user name:	WinNT
#	Modification time:	15. 06. 2019 21:15

#	Program:	/corina/corina34_cracker 3.40 0067  02.08.2006

@<TRIPOS>MOLECULE
ASD08070609
  46   47    0    0    0
SMALL
NO_CHARGES


@<TRIPOS>ATOM
   1 C1             0.4247     1.2111     0.3111 C.2     
   2 C2             0.2795    -0.2454     0.1775 C.2     
   3 N3            -0.9482    -0.8007     0.1525 N.am    
   4 O4             1.2676    -0.9496     0.0896 O.2     
   5 C5            -1.0930    -2.2524     0.0194 C.3     
   6 C6            -2.4306    -2.6888     0.6203 C.3     
   7 C7            -1.0498    -2.6356    -1.4613 C.3     
   8 C8             0.3327    -2.3127    -2.0316 C.3     
   9 C9            -2.4320    -2.4027     2.1233 C.3     
  10 C10            1.6070     1.8785     0.3477 C.2     
  11 C11            1.2687     3.2945     0.4872 C.ar    
  12 C12           -0.1374     3.3489     0.5228 C.ar    
  13 O13           -0.5967     2.0875     0.4100 O.3     
  14 C14            2.0174     4.4698     0.5802 C.ar    
  15 C15            1.3789     5.6714     0.7058 C.ar    
  16 C16           -0.0073     5.7309     0.7415 C.ar    
  17 C17           -0.7644     4.5827     0.6512 C.ar    
  18 C18            2.1854     6.9405     0.8068 C.3     
  19 C19            0.3758    -2.6959    -3.5122 C.3     
  20 C20           -3.8175    -2.7036     2.6985 C.3     
  21 C21           -1.3909    -3.2875     2.8119 C.3     
  22 H22           -1.7361    -0.2391     0.2226 H       
  23 H23           -0.2785    -2.7487     0.5470 H       
  24 H24           -3.2404    -2.1358     0.1444 H       
  25 H25           -2.5728    -3.7566     0.4536 H       
  26 H26           -1.2460    -3.7027    -1.5663 H       
  27 H27           -1.8079    -2.0716    -2.0048 H       
  28 H28            0.5289    -1.2457    -1.9265 H       
  29 H29            1.0907    -2.8767    -1.4880 H       
  30 H30           -2.1877    -1.3542     2.2938 H       
  31 H31            2.5965     1.4502     0.2862 H       
  32 H32            3.0963     4.4291     0.5533 H       
  33 H33           -0.4982     6.6877     0.8411 H       
  34 H34           -1.8424     4.6415     0.6804 H       
  35 H35            2.3579     7.3418    -0.1919 H       
  36 H36            1.6391     7.6716     1.4028 H       
  37 H37            3.1423     6.7260     1.2825 H       
  38 H38            1.3608    -2.4659    -3.9185 H       
  39 H39            0.1797    -3.7630    -3.6172 H       
  40 H40           -0.3822    -2.1319    -4.0557 H       
  41 H41           -4.0992    -3.7271     2.4511 H       
  42 H42           -3.7949    -2.5847     3.7817 H       
  43 H43           -4.5455    -2.0132     2.2723 H       
  44 H44           -0.4038    -3.0732     2.4022 H       
  45 H45           -1.3919    -3.0837     3.8827 H       
  46 H46           -1.6353    -4.3360     2.6414 H       
@<TRIPOS>BOND
   1    1    2 1
   2    1   10 2
   3    1   13 1
   4    2    3 am
   5    2    4 2
   6    3    5 1
   7    3   22 1
   8    5    6 1
   9    5    7 1
  10    5   23 1
  11    6    9 1
  12    6   24 1
  13    6   25 1
  14    7    8 1
  15    7   26 1
  16    7   27 1
  17    8   19 1
  18    8   28 1
  19    8   29 1
  20    9   20 1
  21    9   21 1
  22    9   30 1
  23   10   11 1
  24   10   31 1
  25   11   12 ar
  26   11   14 ar
  27   12   13 1
  28   12   17 ar
  29   14   15 ar
  30   14   32 1
  31   15   16 ar
  32   15   18 1
  33   16   17 ar
  34   16   33 1
  35   17   34 1
  36   18   35 1
  37   18   36 1
  38   18   37 1
  39   19   38 1
  40   19   39 1
  41   19   40 1
  42   20   41 1
  43   20   42 1
  44   20   43 1
  45   21   44 1
  46   21   45 1
  47   21   46 1

#	End of record

