#	Name: ASD05213032
#	Creating user name:	WinNT
#	Creation time:	15. 06. 2019 20:57

#	Modifying user name:	WinNT
#	Modification time:	15. 06. 2019 20:57

#	Program:	/corina/corina34_cracker 3.40 0067  02.08.2006

@<TRIPOS>MOLECULE
ASD05213032
  32   34    0    0    0
SMALL
NO_CHARGES


@<TRIPOS>ATOM
   1 S1            -0.0218     1.7577     0.0117 S.3     
   2 C2             0.0021    -0.0041     0.0020 C.2     
   3 N3            -1.0456    -0.7541     0.0080 N.2     
   4 C4            -0.8656    -2.0890    -0.0009 C.ar    
   5 C5             0.4837    -2.4557    -0.0157 C.ar    
   6 S6             1.4587    -0.9881    -0.0248 S.3     
   7 C7            -1.8384    -3.1117     0.0025 C.ar    
   8 C8            -1.4604    -4.4302    -0.0086 C.ar    
   9 C9            -0.1179    -4.7802    -0.0233 C.ar    
  10 C10            0.8489    -3.7998    -0.0268 C.ar    
  11 C11            1.7090     2.0873    -0.0030 C.2     
  12 C12            2.1965     3.4855    -0.0002 C.2     
  13 O13            2.5029     1.1669    -0.0156 O.2     
  14 C14            3.6493     3.7621    -0.0126 C.2     
  15 N15            1.3454     4.4723     0.0132 N.2     
  16 C16            4.1459     5.0146    -0.0106 C.2     
  17 S17            5.9047     4.9117    -0.0280 S.3     
  18 C18            5.8058     3.1538    -0.0365 C.2     
  19 N19            4.5618     2.7898    -0.0209 N.2     
  20 N20            6.8902     2.2927    -0.0516 N.pl3   
  21 O21           -0.0456     4.2075     0.0251 O.3     
  22 C22           -0.8606     5.3811     0.0392 C.3     
  23 H23           -2.8873    -2.8544     0.0143 H       
  24 H24           -2.2148    -5.2031    -0.0055 H       
  25 H25            0.1687    -5.8214    -0.0316 H       
  26 H26            1.8935    -4.0738    -0.0386 H       
  27 H27            3.5655     5.9253    -0.0007 H       
  28 H28            7.7924     2.6489    -0.0580 H       
  29 H29            6.7475     1.3332    -0.0557 H       
  30 H30           -1.9119     5.0934     0.0477 H       
  31 H31           -0.6373     5.9679     0.9302 H       
  32 H32           -0.6543     5.9774    -0.8496 H       
@<TRIPOS>BOND
   1    1    2 1
   2    1   11 1
   3    2    3 2
   4    2    6 1
   5    3    4 1
   6    4    5 ar
   7    4    7 ar
   8    5    6 1
   9    5   10 ar
  10    7    8 ar
  11    7   23 1
  12    8    9 ar
  13    8   24 1
  14    9   10 ar
  15    9   25 1
  16   10   26 1
  17   11   12 1
  18   11   13 2
  19   12   14 1
  20   12   15 2
  21   14   16 2
  22   14   19 1
  23   15   21 1
  24   16   17 1
  25   16   27 1
  26   17   18 1
  27   18   19 2
  28   18   20 1
  29   20   28 1
  30   20   29 1
  31   21   22 1
  32   22   30 1
  33   22   31 1
  34   22   32 1

#	End of record

