#	Name: ASD03090322
#	Creating user name:	WinNT
#	Creation time:	15. 06. 2019 20:28

#	Modifying user name:	WinNT
#	Modification time:	15. 06. 2019 20:28

#	Program:	/corina/corina34_cracker 3.40 0067  02.08.2006

@<TRIPOS>MOLECULE
ASD03090322
  42   45    0    0    0
SMALL
NO_CHARGES


@<TRIPOS>ATOM
   1 N1             0.4415     1.5084     1.4711 N.ar    
   2 C2             0.4047     0.1901     1.4362 C.ar    
   3 C3             1.5320    -0.5422     1.1256 C.ar    
   4 C4             2.7244     0.1342     0.8454 C.ar    
   5 C5             2.7174     1.5322     0.8936 C.ar    
   6 C6             1.5442     2.1847     1.2136 C.ar    
   7 C7             3.9590    -0.6090     0.5077 C.2     
   8 N8             5.7408    -3.4561    -0.5286 N.pl3   
   9 C9             4.8160    -4.4452    -0.8735 C.ar    
  10 C10            3.5996    -4.0918    -1.4435 C.ar    
  11 C11            2.6856    -5.0726    -1.7840 C.ar    
  12 C12            2.9823    -6.4060    -1.5566 C.ar    
  13 C13            4.1941    -6.7607    -0.9880 C.ar    
  14 C14            5.1140    -5.7836    -0.6519 C.ar    
  15 N15            4.0246    -1.8649     0.1139 N.2     
  16 C16            5.2964    -2.2029    -0.1024 C.2     
  17 N17            6.0637    -1.1672     0.1502 N.2     
  18 N18            5.2177    -0.1175     0.5432 N.pl3   
  19 C19            5.6201     1.2385     0.9246 C.3     
  20 C20            5.7235     2.1112    -0.3278 C.3     
  21 F21            6.1078     3.4061     0.0364 F       
  22 F22            4.4808    -8.0623    -0.7668 F       
  23 F23            1.5024    -4.7295    -2.3385 F       
  24 C24           -0.8861    -0.5258     1.7402 C.3     
  25 C25           -1.7704    -0.9214     0.5559 C.3     
  26 C26           -0.9948    -1.9939     1.3235 C.3     
  27 H27            1.4948    -1.6212     1.0996 H       
  28 H28            3.6167     2.0924     0.6842 H       
  29 H29            1.5288     3.2639     1.2534 H       
  30 H30            6.6915    -3.6401    -0.5854 H       
  31 H31            3.3676    -3.0519    -1.6204 H       
  32 H32            2.2673    -7.1705    -1.8227 H       
  33 H33            6.0590    -6.0606    -0.2085 H       
  34 H34            4.8776     1.6610     1.6016 H       
  35 H35            6.5884     1.2032     1.4238 H       
  36 H36            6.4661     1.6887    -1.0047 H       
  37 H37            4.7552     2.1464    -0.8270 H       
  38 H38           -1.3842    -0.2257     2.6621 H       
  39 H39           -2.8502    -0.8820     0.6988 H       
  40 H40           -1.4184    -0.6639    -0.4431 H       
  41 H41           -0.1327    -2.4420     0.8295 H       
  42 H42           -1.5645    -2.6601     1.9714 H       
@<TRIPOS>BOND
   1    1    2 ar
   2    1    6 ar
   3    2    3 ar
   4    2   24 1
   5    3    4 ar
   6    3   27 1
   7    4    5 ar
   8    4    7 1
   9    5    6 ar
  10    5   28 1
  11    6   29 1
  12    7   15 2
  13    7   18 1
  14    8    9 1
  15    8   16 1
  16    8   30 1
  17    9   10 ar
  18    9   14 ar
  19   10   11 ar
  20   10   31 1
  21   11   12 ar
  22   11   23 1
  23   12   13 ar
  24   12   32 1
  25   13   14 ar
  26   13   22 1
  27   14   33 1
  28   15   16 1
  29   16   17 2
  30   17   18 1
  31   18   19 1
  32   19   20 1
  33   19   34 1
  34   19   35 1
  35   20   21 1
  36   20   36 1
  37   20   37 1
  38   24   25 1
  39   24   26 1
  40   24   38 1
  41   25   26 1
  42   25   39 1
  43   25   40 1
  44   26   41 1
  45   26   42 1

#	End of record

