#	Name: ASD01028234
#	Creating user name:	WinNT
#	Creation time:	15. 06. 2019 18:56

#	Modifying user name:	WinNT
#	Modification time:	15. 06. 2019 18:56

#	Program:	/corina/corina34_cracker 3.40 0067  02.08.2006

@<TRIPOS>MOLECULE
ASD01028234
  45   49    0    0    0
SMALL
NO_CHARGES


@<TRIPOS>ATOM
   1 C1            -0.0157     1.3060     0.0092 C.ar    
   2 N2             0.0021    -0.0041     0.0020 N.ar    
   3 C3             1.1645     2.0563     0.0020 C.ar    
   4 C4             2.3770     1.4188    -0.0130 C.ar    
   5 C5             2.3867     0.0119    -0.0207 C.ar    
   6 C6             1.1525    -0.6850    -0.0126 C.ar    
   7 C7             3.5911    -0.7100    -0.0356 C.ar    
   8 C8             3.5598    -2.0712    -0.0422 C.ar    
   9 C9             2.3478    -2.7583    -0.0348 C.ar    
  10 C10            1.1619    -2.0906    -0.0203 C.ar    
  11 C11            5.2974    -3.1098     1.3572 C.2     
  12 N12            4.9726    -4.1860     2.1065 N.pl3   
  13 C13            5.5967    -4.0067     3.3183 C.2     
  14 N14            6.2522    -2.8598     3.2453 N.2     
  15 N15            6.0726    -2.3411     2.0808 N.2     
  16 N16            4.1949    -5.3236     1.8811 N.2     
  17 C17            4.0525    -6.2309     2.8218 C.2     
  18 C18            4.6799    -6.0753     4.0761 C.2     
  19 C19            5.4439    -4.9790     4.3248 C.2     
  20 C20            3.2218    -7.4323     2.5617 C.ar    
  21 C21            4.8530    -2.8448    -0.0582 C.3     
  22 O22            1.1087     3.4142     0.0094 O.3     
  23 C23           -0.1901     4.0101     0.0245 C.3     
  24 C24            2.5969    -7.5966     1.3270 C.ar    
  25 C25            1.8257    -8.7164     1.0904 C.ar    
  26 C26            1.6725    -9.6747     2.0760 C.ar    
  27 C27            2.2904    -9.5168     3.3035 C.ar    
  28 C28            3.0683    -8.4035     3.5492 C.ar    
  29 H29           -0.9658     1.8194     0.0165 H       
  30 H30            3.2995     1.9804    -0.0192 H       
  31 H31            4.5368    -0.1884    -0.0421 H       
  32 H32            2.3494    -3.8383    -0.0407 H       
  33 H33            0.2314    -2.6388    -0.0145 H       
  34 H34            4.5532    -6.8287     4.8395 H       
  35 H35            5.9264    -4.8547     5.2830 H       
  36 H36            4.7032    -3.7924    -0.5755 H       
  37 H37            5.6169    -2.2649    -0.5762 H       
  38 H38           -0.0918     5.0956     0.0291 H       
  39 H39           -0.7429     3.6991    -0.8619 H       
  40 H40           -0.7263     3.6900     0.9180 H       
  41 H41            2.7156    -6.8488     0.5568 H       
  42 H42            1.3407    -8.8445     0.1340 H       
  43 H43            1.0678   -10.5493     1.8867 H       
  44 H44            2.1671   -10.2680     4.0696 H       
  45 H45            3.5503    -8.2812     4.5079 H       
@<TRIPOS>BOND
   1    1    2 ar
   2    1    3 ar
   3    1   29 1
   4    2    6 ar
   5    3    4 ar
   6    3   22 1
   7    4    5 ar
   8    4   30 1
   9    5    6 ar
  10    5    7 ar
  11    6   10 ar
  12    7    8 ar
  13    7   31 1
  14    8    9 ar
  15    8   21 1
  16    9   10 ar
  17    9   32 1
  18   10   33 1
  19   11   12 1
  20   11   21 1
  21   11   15 2
  22   12   13 1
  23   12   16 1
  24   13   14 2
  25   13   19 1
  26   14   15 1
  27   16   17 2
  28   17   18 1
  29   17   20 1
  30   18   19 2
  31   18   34 1
  32   19   35 1
  33   20   24 ar
  34   20   28 ar
  35   21   36 1
  36   21   37 1
  37   22   23 1
  38   23   38 1
  39   23   39 1
  40   23   40 1
  41   24   25 ar
  42   24   41 1
  43   25   26 ar
  44   25   42 1
  45   26   27 ar
  46   26   43 1
  47   27   28 ar
  48   27   44 1
  49   28   45 1

#	End of record

