#	Name: ASD01870289
#	Creating user name:	WinNT
#	Creation time:	15. 06. 2019 19:38

#	Modifying user name:	WinNT
#	Modification time:	15. 06. 2019 19:38

#	Program:	/corina/corina34_cracker 3.40 0067  02.08.2006

@<TRIPOS>MOLECULE
ASD01870289
  34   36    0    0    0
SMALL
NO_CHARGES


@<TRIPOS>ATOM
   1 C1            -0.1043     1.5070    -0.1388 C.ar    
   2 N2            -0.1239     0.1882    -0.1834 N.ar    
   3 C3             0.9846    -0.5278    -0.2051 C.ar    
   4 C4             2.2214     0.0815    -0.1812 C.ar    
   5 C5             2.2890     1.4778    -0.1338 C.ar    
   6 C6             1.0894     2.1969    -0.1127 C.ar    
   7 C7             3.5958     2.1763    -0.1067 C.2     
   8 N8             4.7496     1.5231    -0.1313 N.2     
   9 C9             3.6940     3.5179    -0.0611 C.2     
  10 S10            5.4037     3.9445    -0.0428 S.3     
  11 C11            5.8311     2.2372    -0.1041 C.2     
  12 N12            7.1251     1.7344    -0.1230 N.am    
  13 C13            7.3481     0.2875    -0.1777 C.3     
  14 C14            8.1762     2.5775    -0.0909 C.2     
  15 C15            9.5506     2.0418    -0.0275 C.ar    
  16 O16            7.9926     3.7791    -0.1142 O.2     
  17 C17            9.9759     1.0885    -0.9556 C.ar    
  18 C18           10.4349     2.4905     0.9585 C.ar    
  19 C19           11.7206     1.9831     1.0105 C.ar    
  20 C20           12.1302     1.0362     0.0908 C.ar    
  21 C21           11.2604     0.5923    -0.8908 C.ar    
  22 F22           10.0350     3.4167     1.8570 F       
  23 H23           -1.0358     2.0535    -0.1271 H       
  24 H24            0.9222    -1.6053    -0.2416 H       
  25 H25            3.1245    -0.5106    -0.1984 H       
  26 H26            1.0979     3.2762    -0.0765 H       
  27 H27            2.8677     4.2130    -0.0401 H       
  28 H28            7.3327    -0.0434    -1.2161 H       
  29 H29            8.3162     0.0521     0.2644 H       
  30 H30            6.5612    -0.2226     0.3779 H       
  31 H31            9.2995     0.7404    -1.7223 H       
  32 H32           12.4058     2.3277     1.7709 H       
  33 H33           13.1354     0.6437     0.1353 H       
  34 H34           11.5895    -0.1448    -1.6083 H       
@<TRIPOS>BOND
   1    1    2 ar
   2    1    6 ar
   3    1   23 1
   4    2    3 ar
   5    3    4 ar
   6    3   24 1
   7    4    5 ar
   8    4   25 1
   9    5    6 ar
  10    5    7 1
  11    6   26 1
  12    7    9 2
  13    7    8 1
  14    8   11 2
  15    9   10 1
  16    9   27 1
  17   10   11 1
  18   11   12 1
  19   12   13 1
  20   12   14 am
  21   13   28 1
  22   13   29 1
  23   13   30 1
  24   14   15 1
  25   14   16 2
  26   15   18 ar
  27   15   17 ar
  28   17   21 ar
  29   17   31 1
  30   18   19 ar
  31   18   22 1
  32   19   20 ar
  33   19   32 1
  34   20   21 ar
  35   20   33 1
  36   21   34 1

#	End of record

