#	Name: ASD05313120
#	Creating user name:	WinNT
#	Creation time:	15. 06. 2019 20:58

#	Modifying user name:	WinNT
#	Modification time:	15. 06. 2019 20:58

#	Program:	/corina/corina34_cracker 3.40 0067  02.08.2006

@<TRIPOS>MOLECULE
ASD05313120
  38   41    0    0    0
SMALL
NO_CHARGES


@<TRIPOS>ATOM
   1 C1            -0.0726     0.8208     1.0202 C.2     
   2 C2             0.1129    -0.6161     0.5944 C.3     
   3 N3             0.9308     1.7336     1.0463 N.pl3   
   4 N4             1.4565    -0.7170    -0.0062 N.am    
   5 C5             2.5708    -0.0354     0.6699 C.3     
   6 C6             2.3175     1.4768     0.6615 C.3     
   7 N7            -0.9036     2.6451     1.7015 N.2     
   8 N8            -1.1571     1.4129     1.4213 N.2     
   9 C9             0.3727     2.8941     1.4889 C.2     
  10 C10            1.0660     4.1844     1.6944 C.ar    
  11 C11            0.3493     5.2886     2.1561 C.ar    
  12 C12            1.0108     6.4888     2.3442 C.ar    
  13 C13            2.3711     6.5475     2.0642 C.ar    
  14 C14            3.0201     5.4114     1.6084 C.ar    
  15 N15            2.3663     4.2802     1.4432 N.ar    
  16 F16            3.0535     7.7010     2.2343 F       
  17 C17            1.6574    -1.4141    -1.1421 C.2     
  18 O18            2.7496    -1.4047    -1.6760 O.2     
  19 C19            0.5510    -2.1893    -1.7379 C.ar    
  20 C20            0.3199    -2.1369    -3.1157 C.ar    
  21 C21           -0.7163    -2.8647    -3.6666 C.ar    
  22 C22           -1.5259    -3.6455    -2.8550 C.ar    
  23 C23           -1.2998    -3.7001    -1.4882 C.ar    
  24 C24           -0.2649    -2.9823    -0.9281 C.ar    
  25 F25           -2.5390    -4.3552    -3.3983 F       
  26 Cl26          -1.0063    -2.8020    -5.3770 Cl      
  27 Cl27           1.3326    -1.1588    -4.1313 Cl      
  28 H28            0.0428    -1.2731     1.4613 H       
  29 H29           -0.6446    -0.8869    -0.1411 H       
  30 H30            2.6416    -0.3869     1.6993 H       
  31 H31            3.5017    -0.2516     0.1457 H       
  32 H32            2.4968     1.8703    -0.3390 H       
  33 H33            2.9881     1.9626     1.3704 H       
  34 H34           -0.7075     5.2076     2.3635 H       
  35 H35            0.4822     7.3607     2.7003 H       
  36 H36            4.0768     5.4530     1.3894 H       
  37 H37           -1.9338    -4.3095    -0.8612 H       
  38 H38           -0.0881    -3.0295     0.1363 H       
@<TRIPOS>BOND
   1    1    2 1
   2    1    3 1
   3    1    8 2
   4    2    4 1
   5    2   28 1
   6    2   29 1
   7    3    6 1
   8    3    9 1
   9    4    5 1
  10    4   17 am
  11    5    6 1
  12    5   30 1
  13    5   31 1
  14    6   32 1
  15    6   33 1
  16    7    8 1
  17    7    9 2
  18    9   10 1
  19   10   11 ar
  20   10   15 ar
  21   11   12 ar
  22   11   34 1
  23   12   13 ar
  24   12   35 1
  25   13   14 ar
  26   13   16 1
  27   14   15 ar
  28   14   36 1
  29   17   18 2
  30   17   19 1
  31   19   20 ar
  32   19   24 ar
  33   20   21 ar
  34   20   27 1
  35   21   22 ar
  36   21   26 1
  37   22   23 ar
  38   22   25 1
  39   23   24 ar
  40   23   37 1
  41   24   38 1

#	End of record

