#	Name: ASD05740157
#	Creating user name:	WinNT
#	Creation time:	15. 06. 2019 21:02

#	Modifying user name:	WinNT
#	Modification time:	15. 06. 2019 21:02

#	Program:	/corina/corina34_cracker 3.40 0067  02.08.2006

@<TRIPOS>MOLECULE
ASD05740157
  64   68    0    0    0
SMALL
NO_CHARGES


@<TRIPOS>ATOM
   1 C1             0.9942     1.0426     0.1968 C.3     
   2 N2             0.2568    -0.1976    -0.0567 N.pl3   
   3 C3            -0.2683    -0.9306     1.0135 C.ar    
   4 C4             0.0063    -0.5462     2.3195 C.ar    
   5 C5            -0.5118    -1.2695     3.3753 C.ar    
   6 C6            -1.3071    -2.3814     3.1314 C.ar    
   7 C7            -1.5813    -2.7661     1.8256 C.ar    
   8 C8            -1.0687    -2.0390     0.7696 C.ar    
   9 N9            -1.8323    -3.1154     4.2027 N.pl3   
  10 C10           -2.1827    -2.4730     5.3741 C.ar    
  11 N11           -2.1102    -1.1472     5.4222 N.ar    
  12 N12           -2.5834    -3.2018     6.4054 N.ar    
  13 C13           -2.9276    -2.6182     7.5461 C.ar    
  14 C14           -2.8577    -1.2104     7.6360 C.ar    
  15 C15           -2.4337    -0.4837     6.5177 C.ar    
  16 N16           -3.3466    -3.3452     8.6303 N.am    
  17 C17           -3.6922    -2.7370     9.7790 C.2     
  18 C18           -3.6413    -1.3357     9.9224 C.2     
  19 C19           -3.2338    -0.5571     8.8860 C.2     
  20 C20           -3.4193    -4.8053     8.5362 C.3     
  21 O21           -4.0598    -3.4162    10.7218 O.2     
  22 C22            2.4542     0.8645    -0.2258 C.3     
  23 C23           -2.0162    -6.7793     9.1678 C.ar    
  24 C24           -2.1416    -5.4069     9.0620 C.ar    
  25 C25           -0.8439    -7.3312     9.6502 C.ar    
  26 C26            0.2026    -6.5105    10.0266 C.ar    
  27 C27            0.0773    -5.1377     9.9204 C.ar    
  28 C28           -1.0946    -4.5860     9.4382 C.ar    
  29 C29           -3.1595    -7.6738     8.7632 C.3     
  30 F30           -2.8297    -9.0053     9.0383 F       
  31 F31           -4.3060    -7.3192     9.4821 F       
  32 F32           -3.4040    -7.5273     7.3935 F       
  33 N33            3.1889     2.1142     0.0085 N.3     
  34 C34            2.6365     3.2133    -0.7936 C.3     
  35 C35            1.1819     3.4615    -0.3880 C.3     
  36 C36            0.3695     2.1831    -0.6117 C.3     
  37 C37            0.0693    -0.6706    -1.4305 C.3     
  38 H38            0.9495     1.2820     1.2592 H       
  39 H39            0.6254     0.3181     2.5092 H       
  40 H40           -0.2983    -0.9706     4.3910 H       
  41 H41           -2.1992    -3.6313     1.6359 H       
  42 H42           -1.2819    -2.3381    -0.2460 H       
  43 H43           -1.9500    -4.0748     4.1218 H       
  44 H44           -2.3680     0.5938     6.5511 H       
  45 H45           -3.9266    -0.8796    10.8588 H       
  46 H46           -3.1905     0.5175     8.9842 H       
  47 H47           -4.2610    -5.1661     9.1274 H       
  48 H48           -3.5560    -5.0959     7.4945 H       
  49 H49            2.9061     0.0626     0.3581 H       
  50 H50            2.4974     0.6109    -1.2850 H       
  51 H51           -0.7460    -8.4035     9.7331 H       
  52 H52            1.1181    -6.9416    10.4041 H       
  53 H53            0.8950    -4.4965    10.2146 H       
  54 H54           -1.1926    -3.5137     9.3555 H       
  55 H55            3.1965     2.3507     0.9893 H       
  56 H56            3.2207     4.1173    -0.6221 H       
  57 H57            2.6788     2.9487    -1.8502 H       
  58 H58            1.1402     3.7396     0.6651 H       
  59 H59            0.7674     4.2669    -0.9943 H       
  60 H60            0.3787     1.9263    -1.6710 H       
  61 H61           -0.6577     2.3421    -0.2835 H       
  62 H62            0.8985    -1.3217    -1.7070 H       
  63 H63           -0.8666    -1.2252    -1.4992 H       
  64 H64            0.0363     0.1831    -2.1074 H       
@<TRIPOS>BOND
   1    1    2 1
   2    1   22 1
   3    1   36 1
   4    1   38 1
   5    2    3 1
   6    2   37 1
   7    3    4 ar
   8    3    8 ar
   9    4    5 ar
  10    4   39 1
  11    5    6 ar
  12    5   40 1
  13    6    7 ar
  14    6    9 1
  15    7    8 ar
  16    7   41 1
  17    8   42 1
  18    9   10 1
  19    9   43 1
  20   10   11 ar
  21   10   12 ar
  22   11   15 ar
  23   12   13 ar
  24   13   14 ar
  25   13   16 1
  26   14   15 ar
  27   14   19 1
  28   15   44 1
  29   16   17 am
  30   16   20 1
  31   17   18 1
  32   17   21 2
  33   18   19 2
  34   18   45 1
  35   19   46 1
  36   20   24 1
  37   20   47 1
  38   20   48 1
  39   22   33 1
  40   22   49 1
  41   22   50 1
  42   23   24 ar
  43   23   25 ar
  44   23   29 1
  45   24   28 ar
  46   25   26 ar
  47   25   51 1
  48   26   27 ar
  49   26   52 1
  50   27   28 ar
  51   27   53 1
  52   28   54 1
  53   29   30 1
  54   29   31 1
  55   29   32 1
  56   33   34 1
  57   33   55 1
  58   34   35 1
  59   34   56 1
  60   34   57 1
  61   35   36 1
  62   35   58 1
  63   35   59 1
  64   36   60 1
  65   36   61 1
  66   37   62 1
  67   37   63 1
  68   37   64 1

#	End of record

