#	Name: ASD01911704
#	Creating user name:	WinNT
#	Creation time:	15. 06. 2019 19:58

#	Modifying user name:	WinNT
#	Modification time:	15. 06. 2019 19:58

#	Program:	/corina/corina34_cracker 3.40 0067  02.08.2006

@<TRIPOS>MOLECULE
ASD01911704
  38   41    0    0    0
SMALL
NO_CHARGES


@<TRIPOS>ATOM
   1 N1            -0.0058     1.3115     0.2945 N.am    
   2 C2             0.0021    -0.0041     0.0020 C.2     
   3 C3             1.2748    -0.7187    -0.1246 C.2     
   4 C4             1.4470    -2.0747    -0.0500 C.2     
   5 S5             2.8518     0.0159    -0.4072 S.3     
   6 C6             3.5964    -1.5802    -0.3905 C.2     
   7 N7             2.6740    -2.4890    -0.1925 N.2     
   8 C8             4.9925    -1.8437    -0.5701 C.1     
   9 C9             6.1370    -2.0597    -0.7173 C.1     
  10 C10            7.5330    -2.3233    -0.8969 C.ar    
  11 C11            8.0099    -3.6372    -0.8636 C.ar    
  12 C12            9.3565    -3.8830    -1.0379 C.ar    
  13 C13           10.2344    -2.8316    -1.2454 C.ar    
  14 C14            9.7690    -1.5292    -1.2794 C.ar    
  15 C15            8.4250    -1.2685    -1.1121 C.ar    
  16 O16           -1.0481    -0.5985    -0.1570 O.2     
  17 C17            1.2431     2.0187     0.6326 C.3     
  18 C18            0.9503     2.8991     1.8216 C.2     
  19 C19           -0.2900     3.1483     2.2939 C.2     
  20 C20           -1.5561     2.5783     1.7047 C.3     
  21 C21           -1.2594     2.0803     0.2789 C.3     
  22 N22            1.8261     3.5791     2.6095 N.pl3   
  23 C23            1.0938     4.2303     3.5428 C.2     
  24 N24           -0.1711     3.9660     3.3446 N.2     
  25 Cl25           9.9519    -5.5132    -0.9966 Cl      
  26 H26            0.6235    -2.7535     0.1157 H       
  27 H27            7.3263    -4.4575    -0.7015 H       
  28 H28           11.2874    -3.0296    -1.3809 H       
  29 H29           10.4594    -0.7147    -1.4417 H       
  30 H30            8.0636    -0.2511    -1.1389 H       
  31 H31            2.0204     1.2981     0.8869 H       
  32 H32            1.5638     2.6295    -0.2113 H       
  33 H33           -1.9035     1.7480     2.3195 H       
  34 H34           -2.3222     3.3527     1.6668 H       
  35 H35           -1.1617     2.9337    -0.3920 H       
  36 H36           -2.0741     1.4406    -0.0604 H       
  37 H37            2.7917     3.5945     2.5194 H       
  38 H38            1.4893     4.8636     4.3232 H       
@<TRIPOS>BOND
   1    1    2 am
   2    1   17 1
   3    1   21 1
   4    2    3 1
   5    2   16 2
   6    3    4 2
   7    3    5 1
   8    4    7 1
   9    4   26 1
  10    5    6 1
  11    6    7 2
  12    6    8 1
  13    8    9 3
  14    9   10 1
  15   10   11 ar
  16   10   15 ar
  17   11   12 ar
  18   11   27 1
  19   12   13 ar
  20   12   25 1
  21   13   14 ar
  22   13   28 1
  23   14   15 ar
  24   14   29 1
  25   15   30 1
  26   17   18 1
  27   17   31 1
  28   17   32 1
  29   18   19 2
  30   18   22 1
  31   19   20 1
  32   19   24 1
  33   20   21 1
  34   20   33 1
  35   20   34 1
  36   21   35 1
  37   21   36 1
  38   22   23 1
  39   22   37 1
  40   23   24 2
  41   23   38 1

#	End of record

