#	Name: ASD00069183
#	Creating user name:	WinNT
#	Creation time:	15. 06. 2019 18:29

#	Modifying user name:	WinNT
#	Modification time:	15. 06. 2019 18:29

#	Program:	/corina/corina34_cracker 3.40 0067  02.08.2006

@<TRIPOS>MOLECULE
ASD00069183
  69   73    0    0    0
SMALL
NO_CHARGES


@<TRIPOS>ATOM
   1 C1            -0.5607     1.2887     1.0692 C.2     
   2 N2            -0.5377     0.0500     1.5085 N.2     
   3 C3             0.7318    -0.3733     1.5535 C.2     
   4 C4             1.5334     0.6472     1.1230 C.2     
   5 N5             0.7238     1.6863     0.8204 N.pl3   
   6 C6            -1.7694     2.1096     0.8717 C.2     
   7 O7            -1.6698     3.2488     0.4576 O.2     
   8 N8            -2.9846     1.5975     1.1499 N.am    
   9 C9             0.7397    -3.9164     2.8163 C.ar    
  10 C10            0.2722    -2.6819     2.4153 C.ar    
  11 C11            1.1884    -1.7141     1.9938 C.ar    
  12 C12            2.5470    -2.0444     1.9982 C.ar    
  13 C13            2.9283    -3.3026     2.4148 C.ar    
  14 N14            2.0308    -4.1878     2.8053 N.ar    
  15 C15           -0.2368    -4.9668     3.2790 C.3     
  16 C16           -4.1230     2.4084     1.0621 C.ar    
  17 C17           -5.3441     1.8592     0.6733 C.ar    
  18 C18           -6.4690     2.6689     0.5888 C.ar    
  19 C19           -6.3749     4.0166     0.8903 C.ar    
  20 C20           -5.1630     4.5597     1.2753 C.ar    
  21 C21           -4.0399     3.7592     1.3673 C.ar    
  22 N22           -5.4357     0.4951     0.3685 N.3     
  23 C23           -6.3932    -0.1790     1.2547 C.3     
  24 C24           -6.3600    -1.6862     0.9915 C.3     
  25 C25           -6.7177    -1.9516    -0.4734 C.3     
  26 C26           -5.7349    -1.1994    -1.3750 C.3     
  27 C27           -5.7862     0.2937    -1.0432 C.3     
  28 C28           -6.6283    -3.4296    -0.7539 C.2     
  29 O29           -6.0505    -4.1603     0.0227 O.2     
  30 N30           -7.1905    -3.9394    -1.8677 N.am    
  31 C31           -7.2291    -5.3919    -2.1000 C.3     
  32 C32           -6.6872    -5.6712    -3.5065 C.3     
  33 O33           -7.3881    -4.8583    -4.4509 O.3     
  34 C34           -7.2153    -3.4528    -4.2553 C.3     
  35 C35           -7.7893    -3.0602    -2.8844 C.3     
  36 C36           -6.3587    -6.1031    -1.0619 C.3     
  37 O37           -4.9965    -5.7053    -1.2294 O.3     
  38 F38           -7.6545     2.1416     0.2121 F       
  39 H39            2.6101     0.6270     1.0408 H       
  40 H40            1.0024     2.5539     0.4878 H       
  41 H41           -3.0707     0.6673     1.4110 H       
  42 H42           -0.7861    -2.4667     2.4265 H       
  43 H43            3.2869    -1.3250     1.6796 H       
  44 H44            3.9754    -3.5671     2.4213 H       
  45 H45           -0.5575    -5.5655     2.4265 H       
  46 H46            0.2442    -5.6110     4.0151 H       
  47 H47           -1.1035    -4.4836     3.7302 H       
  48 H48           -7.2504     4.6456     0.8243 H       
  49 H49           -5.0947     5.6119     1.5091 H       
  50 H50           -3.0962     4.1863     1.6731 H       
  51 H51           -6.1250     0.0143     2.2933 H       
  52 H52           -7.3963     0.2013     1.0620 H       
  53 H53           -5.3606    -2.0696     1.1973 H       
  54 H54           -7.0819    -2.1846     1.6385 H       
  55 H55           -7.7317    -1.6034    -0.6697 H       
  56 H56           -4.7257    -1.5751    -1.2064 H       
  57 H57           -6.0102    -1.3499    -2.4188 H       
  58 H58           -6.7922     0.6718    -1.2252 H       
  59 H59           -5.0772     0.8304    -1.6736 H       
  60 H60           -8.2563    -5.7485    -2.0248 H       
  61 H61           -5.6238    -5.4343    -3.5407 H       
  62 H62           -6.8347    -6.7231    -3.7513 H       
  63 H63           -6.1539    -3.2078    -4.2922 H       
  64 H64           -7.7427    -2.9086    -5.0388 H       
  65 H65           -8.8720    -3.1860    -2.8869 H       
  66 H66           -7.5404    -2.0220    -2.6646 H       
  67 H67           -6.6952    -5.8347    -0.0604 H       
  68 H68           -6.4414    -7.1817    -1.1960 H       
  69 H69           -4.3863    -6.1182    -0.6031 H       
@<TRIPOS>BOND
   1    1    2 2
   2    1    5 1
   3    1    6 1
   4    2    3 1
   5    3    4 2
   6    3   11 1
   7    4    5 1
   8    4   39 1
   9    5   40 1
  10    6    7 2
  11    6    8 am
  12    8   16 1
  13    8   41 1
  14    9   10 ar
  15    9   14 ar
  16    9   15 1
  17   10   11 ar
  18   10   42 1
  19   11   12 ar
  20   12   13 ar
  21   12   43 1
  22   13   14 ar
  23   13   44 1
  24   15   45 1
  25   15   46 1
  26   15   47 1
  27   16   17 ar
  28   16   21 ar
  29   17   18 ar
  30   17   22 1
  31   18   19 ar
  32   18   38 1
  33   19   20 ar
  34   19   48 1
  35   20   21 ar
  36   20   49 1
  37   21   50 1
  38   22   23 1
  39   22   27 1
  40   23   24 1
  41   23   51 1
  42   23   52 1
  43   24   25 1
  44   24   53 1
  45   24   54 1
  46   25   26 1
  47   25   28 1
  48   25   55 1
  49   26   27 1
  50   26   56 1
  51   26   57 1
  52   27   58 1
  53   27   59 1
  54   28   29 2
  55   28   30 am
  56   30   31 1
  57   30   35 1
  58   31   32 1
  59   31   36 1
  60   31   60 1
  61   32   33 1
  62   32   61 1
  63   32   62 1
  64   33   34 1
  65   34   35 1
  66   34   63 1
  67   34   64 1
  68   35   65 1
  69   35   66 1
  70   36   37 1
  71   36   67 1
  72   36   68 1
  73   37   69 1

#	End of record

