#	Name: ASD01915467
#	Creating user name:	WinNT
#	Creation time:	15. 06. 2019 20:05

#	Modifying user name:	WinNT
#	Modification time:	15. 06. 2019 20:05

#	Program:	/corina/corina34_cracker 3.40 0067  02.08.2006

@<TRIPOS>MOLECULE
ASD01915467
  33   35    0    0    0
SMALL
NO_CHARGES


@<TRIPOS>ATOM
   1 C1            -0.0167     1.3780     0.0096 C.ar    
   2 C2             0.0021    -0.0041     0.0020 C.ar    
   3 C3             1.2080    -0.6794    -0.0131 C.ar    
   4 C4             2.3969     0.0266    -0.0202 C.ar    
   5 C5             2.3806     1.4083    -0.0122 C.ar    
   6 C6             1.1730     2.0859     0.0021 C.ar    
   7 F7             1.1559     3.4368     0.0095 F       
   8 C8             3.7109    -0.7111    -0.0362 C.3     
   9 O9             4.1138    -0.9370    -1.3885 O.3     
  10 C10            5.2835    -1.5937    -1.5803 C.ar    
  11 C11            5.7235    -1.8404    -2.8769 C.ar    
  12 N12            5.9898    -1.9843    -0.5297 N.ar    
  13 C13            7.1312    -2.6247    -0.6645 C.ar    
  14 C14            7.6319    -2.9133    -1.9365 C.ar    
  15 C15            6.9166    -2.5110    -3.0676 C.ar    
  16 C16            7.9198    -3.0575     0.5445 C.3     
  17 C17            8.6284    -4.3790     0.2577 C.3     
  18 N18            9.3880    -4.3080    -0.9877 N.am    
  19 C19            8.9128    -3.6354    -2.0556 C.2     
  20 O20            9.5315    -3.6244    -3.1022 O.2     
  21 H21           -0.9591     1.9054     0.0169 H       
  22 H22           -0.9259    -0.5565     0.0083 H       
  23 H23            1.2217    -1.7592    -0.0191 H       
  24 H24            3.3093     1.9595    -0.0170 H       
  25 H25            4.4681    -0.1157     0.4739 H       
  26 H26            3.5967    -1.6678     0.4735 H       
  27 H27            5.1395    -1.5121    -3.7240 H       
  28 H28            7.2833    -2.7216    -4.0614 H       
  29 H29            8.6602    -2.2947     0.7858 H       
  30 H30            7.2446    -3.1850     1.3906 H       
  31 H31            9.3081    -4.6061     1.0789 H       
  32 H32            7.8860    -5.1732     0.1790 H       
  33 H33           10.2486    -4.7515    -1.0475 H       
@<TRIPOS>BOND
   1    1    2 ar
   2    1    6 ar
   3    1   21 1
   4    2    3 ar
   5    2   22 1
   6    3    4 ar
   7    3   23 1
   8    4    5 ar
   9    4    8 1
  10    5    6 ar
  11    5   24 1
  12    6    7 1
  13    8    9 1
  14    8   25 1
  15    8   26 1
  16    9   10 1
  17   10   11 ar
  18   10   12 ar
  19   11   15 ar
  20   11   27 1
  21   12   13 ar
  22   13   14 ar
  23   13   16 1
  24   14   15 ar
  25   14   19 1
  26   15   28 1
  27   16   17 1
  28   16   29 1
  29   16   30 1
  30   17   18 1
  31   17   31 1
  32   17   32 1
  33   18   19 am
  34   18   33 1
  35   19   20 2

#	End of record

