#	Name: ASD03090624
#	Creating user name:	WinNT
#	Creation time:	15. 06. 2019 20:29

#	Modifying user name:	WinNT
#	Modification time:	15. 06. 2019 20:29

#	Program:	/corina/corina34_cracker 3.40 0067  02.08.2006

@<TRIPOS>MOLECULE
ASD03090624
  46   47    0    0    0
SMALL
NO_CHARGES


@<TRIPOS>ATOM
   1 N1             0.0765     1.3361     0.0276 N.am    
   2 C2             0.2049     0.1552     0.6643 C.2     
   3 O3             1.2945    -0.2022     1.0688 O.2     
   4 N4            -0.8745    -0.6296     0.8528 N.am    
   5 S5            -2.0108    -2.9547     1.8267 S.3     
   6 C6            -0.7421    -1.8480     1.5098 C.2     
   7 N7             0.3642    -2.3361     1.9844 N.2     
   8 N8             0.3112    -3.4610     2.5550 N.2     
   9 C9            -0.8521    -4.0270     2.6136 C.2     
  10 C10           -1.1607    -5.3616     3.2418 C.3     
  11 F11           -0.0110    -5.8618     3.8625 F       
  12 F12           -2.1742    -5.2060     4.1934 F       
  13 F13           -1.5831    -6.2561     2.2525 F       
  14 C14            1.1828     2.1910    -0.0952 C.ar    
  15 C15            0.9908     3.5629    -0.2407 C.ar    
  16 C16            2.0841     4.4043    -0.3617 C.ar    
  17 C17            3.3679     3.8801    -0.3378 C.ar    
  18 C18            3.5579     2.5132    -0.1928 C.ar    
  19 C19            2.4680     1.6713    -0.0660 C.ar    
  20 O20            4.4414     4.7064    -0.4571 O.3     
  21 C21            4.1789     6.1107    -0.4884 C.3     
  22 C22            5.4157     6.8717    -0.0066 C.3     
  23 C23            3.8445     6.5353    -1.9198 C.3     
  24 O24           -0.2687     4.0754    -0.2644 O.3     
  25 C25           -0.3893     5.4989    -0.3016 C.3     
  26 C26           -0.2949     5.9810    -1.7506 C.3     
  27 C27           -1.7401     5.9118     0.2863 C.3     
  28 Cl28           5.1660     1.8598    -0.1638 Cl      
  29 H29           -0.7794     1.5934    -0.3493 H       
  30 H30           -1.7437    -0.3444     0.5302 H       
  31 H31            1.9370     5.4683    -0.4750 H       
  32 H32            2.6178     0.6082     0.0516 H       
  33 H33            3.3358     6.3374     0.1641 H       
  34 H34            6.2589     6.6450    -0.6592 H       
  35 H35            5.2155     7.9429    -0.0305 H       
  36 H36            5.6540     6.5692     1.0132 H       
  37 H37            2.9634     5.9932    -2.2631 H       
  38 H38            3.6442     7.6064    -1.9437 H       
  39 H39            4.6876     6.3086    -2.5724 H       
  40 H40            0.4139     5.9470     0.2835 H       
  41 H41            0.6675     5.6868    -2.1694 H       
  42 H42           -1.0980     5.5329    -2.3356 H       
  43 H43           -0.3869     7.0667    -1.7789 H       
  44 H44           -1.8074     5.5683     1.3186 H       
  45 H45           -1.8321     6.9975     0.2580 H       
  46 H46           -2.5432     5.4637    -0.2987 H       
@<TRIPOS>BOND
   1    1    2 am
   2    1   14 1
   3    1   29 1
   4    2    3 2
   5    2    4 am
   6    4    6 1
   7    4   30 1
   8    5    6 1
   9    5    9 1
  10    6    7 2
  11    7    8 1
  12    8    9 2
  13    9   10 1
  14   10   11 1
  15   10   12 1
  16   10   13 1
  17   14   15 ar
  18   14   19 ar
  19   15   16 ar
  20   15   24 1
  21   16   17 ar
  22   16   31 1
  23   17   18 ar
  24   17   20 1
  25   18   19 ar
  26   18   28 1
  27   19   32 1
  28   20   21 1
  29   21   22 1
  30   21   23 1
  31   21   33 1
  32   22   34 1
  33   22   35 1
  34   22   36 1
  35   23   37 1
  36   23   38 1
  37   23   39 1
  38   24   25 1
  39   25   26 1
  40   25   27 1
  41   25   40 1
  42   26   41 1
  43   26   42 1
  44   26   43 1
  45   27   44 1
  46   27   45 1
  47   27   46 1

#	End of record

