#	Name: ASD01914218
#	Creating user name:	WinNT
#	Creation time:	15. 06. 2019 20:03

#	Modifying user name:	WinNT
#	Modification time:	15. 06. 2019 20:03

#	Program:	/corina/corina34_cracker 3.40 0067  02.08.2006

@<TRIPOS>MOLECULE
ASD01914218
  40   42    0    0    0
SMALL
NO_CHARGES


@<TRIPOS>ATOM
   1 C1            -0.0162     1.3452     0.0094 C.2     
   2 N2             0.0021    -0.0041     0.0020 N.am    
   3 N3             1.1982    -0.7219    -0.0128 N.2     
   4 C4             2.3631    -0.1453    -0.0208 C.2     
   5 C5             2.4569     1.3147    -0.0143 C.ar    
   6 C6             3.6875     1.9741    -0.0229 C.ar    
   7 C7             3.7230     3.3405    -0.0168 C.ar    
   8 C8             2.5504     4.0848    -0.0021 C.ar    
   9 C9             1.3219     3.4615     0.0066 C.ar    
  10 C10            1.2612     2.0686     0.0011 C.ar    
  11 O11           -1.0727     1.9514     0.0178 O.2     
  12 C12           -1.2678    -0.7345     0.0102 C.3     
  13 C13           -1.7237    -0.9810    -1.4293 C.3     
  14 C14           -3.0499    -1.7438    -1.4208 C.3     
  15 C15           -3.5058    -1.9903    -2.8604 C.3     
  16 C16           -4.7817    -2.7242    -2.8521 C.1     
  17 C17           -5.7994    -3.3096    -2.8456 C.1     
  18 C18           -7.0407    -4.0235    -2.8375 C.ar    
  19 C19           -7.6524    -4.3622    -4.0451 C.ar    
  20 C20           -8.8514    -5.0520    -4.0206 C.ar    
  21 C21           -9.4015    -5.3817    -2.7895 C.ar    
  22 C22           -8.7418    -5.0149    -1.6311 C.ar    
  23 N23           -7.5981    -4.3630    -1.6810 N.ar    
  24 H24            3.2618    -0.7441    -0.0318 H       
  25 H25            4.6068     1.4074    -0.0340 H       
  26 H26            4.6761     3.8485    -0.0231 H       
  27 H27            2.6023     5.1636     0.0028 H       
  28 H28            0.4141     4.0465     0.0184 H       
  29 H29           -1.1342    -1.6898     0.5177 H       
  30 H30           -2.0215    -0.1469     0.5344 H       
  31 H31           -1.8573    -0.0256    -1.9368 H       
  32 H32           -0.9700    -1.5686    -1.9536 H       
  33 H33           -2.9163    -2.6992    -0.9133 H       
  34 H34           -3.8036    -1.1563    -0.8966 H       
  35 H35           -3.6394    -1.0350    -3.3678 H       
  36 H36           -2.7521    -2.5779    -3.3846 H       
  37 H37           -7.1966    -4.0894    -4.9854 H       
  38 H38           -9.3486    -5.3275    -4.9389 H       
  39 H39          -10.3366    -5.9196    -2.7370 H       
  40 H40           -9.1680    -5.2700    -0.6720 H       
@<TRIPOS>BOND
   1    1    2 am
   2    1   10 1
   3    1   11 2
   4    2    3 1
   5    2   12 1
   6    3    4 2
   7    4    5 1
   8    4   24 1
   9    5    6 ar
  10    5   10 ar
  11    6    7 ar
  12    6   25 1
  13    7    8 ar
  14    7   26 1
  15    8    9 ar
  16    8   27 1
  17    9   10 ar
  18    9   28 1
  19   12   13 1
  20   12   29 1
  21   12   30 1
  22   13   14 1
  23   13   31 1
  24   13   32 1
  25   14   15 1
  26   14   33 1
  27   14   34 1
  28   15   16 1
  29   15   35 1
  30   15   36 1
  31   16   17 3
  32   17   18 1
  33   18   19 ar
  34   18   23 ar
  35   19   20 ar
  36   19   37 1
  37   20   21 ar
  38   20   38 1
  39   21   22 ar
  40   21   39 1
  41   22   23 ar
  42   22   40 1

#	End of record

