#	Name: ASD05380101
#	Creating user name:	WinNT
#	Creation time:	15. 06. 2019 20:59

#	Modifying user name:	WinNT
#	Modification time:	15. 06. 2019 20:59

#	Program:	/corina/corina34_cracker 3.40 0067  02.08.2006

@<TRIPOS>MOLECULE
ASD05380101
  49   53    0    0    0
SMALL
NO_CHARGES


@<TRIPOS>ATOM
   1 C1            -0.1385     1.4414    -0.4442 C.ar    
   2 C2             0.0679     0.1163     0.0015 C.ar    
   3 C3             0.9348     2.1925    -0.9220 C.ar    
   4 C4             2.1949     1.6315    -0.9551 C.ar    
   5 C5             2.3996     0.3304    -0.5178 C.ar    
   6 C6             1.3524    -0.4279    -0.0424 C.ar    
   7 N7            -0.9909    -0.5954     0.4627 N.2     
   8 C8            -2.1856    -0.0886     0.5037 C.2     
   9 N9            -2.4755     1.1765     0.0953 N.am    
  10 C10           -1.5012     1.9872    -0.3795 C.2     
  11 C11           -3.7927     1.6461     0.1726 C.ar    
  12 C12           -4.2301     2.3042     1.3142 C.ar    
  13 C13           -4.6611     1.4592    -0.8944 C.ar    
  14 C14           -6.3979     2.5748     0.3257 C.ar    
  15 C15           -3.3082    -0.9452     1.0300 C.3     
  16 N16           -3.0929    -2.3361     0.6237 N.pl3   
  17 C17           -4.1688    -3.2000     0.5158 C.ar    
  18 N18           -5.4037    -2.7839     0.7770 N.ar    
  19 O19           -1.7462     3.1212    -0.7483 O.2     
  20 C20           -3.9816    -4.5356     0.1218 C.ar    
  21 C21           -5.1123    -5.3650     0.0302 C.ar    
  22 N22           -6.3079    -4.8609     0.3170 N.ar    
  23 C23           -6.4361    -3.6010     0.6767 C.ar    
  24 N24           -2.9069    -5.2867    -0.2191 N.2     
  25 C25           -3.2964    -6.4946    -0.5071 C.2     
  26 N26           -4.6489    -6.5934    -0.3683 N.pl3   
  27 C27           -5.5316     2.7673     1.3887 C.ar    
  28 C28           -5.9618     1.9238    -0.8160 C.ar    
  29 C29           -3.3423    -0.8595     2.5572 C.3     
  30 F30           -5.9594     3.4028     2.5015 F       
  31 F31           -6.8072     1.7422    -1.8541 F       
  32 Cl32           0.6874     3.8206    -1.4714 Cl      
  33 C33           -4.5561    -1.6276     3.0842 C.3     
  34 H34            3.0289     2.2096    -1.3247 H       
  35 H35            3.3925    -0.0931    -0.5507 H       
  36 H36            1.5246    -1.4394     0.2947 H       
  37 H37           -3.5549     2.4542     2.1436 H       
  38 H38           -4.3212     0.9518    -1.7852 H       
  39 H39           -7.4136     2.9369     0.3854 H       
  40 H40           -4.2561    -0.5909     0.6250 H       
  41 H41           -2.1963    -2.6517     0.4303 H       
  42 H42           -7.4227    -3.2217     0.8987 H       
  43 H43           -2.6442    -7.3000    -0.8112 H       
  44 H44           -5.1852    -7.3868    -0.5223 H       
  45 H45           -2.4308    -1.2955     2.9660 H       
  46 H46           -3.4134     0.1849     2.8610 H       
  47 H47           -4.5803    -1.5665     4.1722 H       
  48 H48           -5.4675    -1.1915     2.6754 H       
  49 H49           -4.4850    -2.6720     2.7804 H       
@<TRIPOS>BOND
   1    1    2 ar
   2    1    3 ar
   3    1   10 1
   4    2    7 1
   5    2    6 ar
   6    3    4 ar
   7    3   32 1
   8    4    5 ar
   9    4   34 1
  10    5    6 ar
  11    5   35 1
  12    6   36 1
  13    7    8 2
  14    8    9 1
  15    8   15 1
  16    9   10 am
  17    9   11 1
  18   10   19 2
  19   11   12 ar
  20   11   13 ar
  21   12   27 ar
  22   12   37 1
  23   13   28 ar
  24   13   38 1
  25   14   27 ar
  26   14   28 ar
  27   14   39 1
  28   15   16 1
  29   15   29 1
  30   15   40 1
  31   16   17 1
  32   16   41 1
  33   17   18 ar
  34   17   20 ar
  35   18   23 ar
  36   20   21 ar
  37   20   24 1
  38   21   22 ar
  39   21   26 1
  40   22   23 ar
  41   23   42 1
  42   24   25 2
  43   25   26 1
  44   25   43 1
  45   26   44 1
  46   27   30 1
  47   28   31 1
  48   29   33 1
  49   29   45 1
  50   29   46 1
  51   33   47 1
  52   33   48 1
  53   33   49 1

#	End of record

