#	Name: ASD08070065
#	Creating user name:	WinNT
#	Creation time:	15. 06. 2019 21:14

#	Modifying user name:	WinNT
#	Modification time:	15. 06. 2019 21:14

#	Program:	/corina/corina34_cracker 3.40 0067  02.08.2006

@<TRIPOS>MOLECULE
ASD08070065
  40   40    0    0    0
SMALL
NO_CHARGES


@<TRIPOS>ATOM
   1 C1            -0.0166     1.3756     0.0096 C.ar    
   2 C2             0.0021    -0.0041     0.0020 C.ar    
   3 C3             1.1701     2.0865     0.0021 C.ar    
   4 C4             2.3828     1.4202    -0.0130 C.ar    
   5 C5             2.4156     0.0413    -0.0212 C.ar    
   6 C6             1.2217    -0.6822    -0.0132 C.ar    
   7 C7             1.2493    -2.1604    -0.0219 C.2     
   8 O8             2.3131    -2.7483    -0.0360 O.2     
   9 C9             0.2429    -4.8201    -1.4639 C.3     
  10 C10            0.1222    -4.3207    -0.0228 C.3     
  11 N11            0.0949    -2.8559    -0.0142 N.am    
  12 C12           -1.1497    -4.8504     0.5876 C.2     
  13 O13           -1.3463    -6.1746     0.6857 O.3     
  14 C14            1.1420     3.5932     0.0099 C.3     
  15 C15            1.5343    -4.2823    -2.0836 C.3     
  16 C16            3.6706     2.2029    -0.0211 C.3     
  17 C17            0.2715    -6.3498    -1.4729 C.3     
  18 O18           -1.9926    -4.0832     0.9886 O.2     
  19 C19           -2.5944    -6.6131     1.2843 C.3     
  20 H20           -0.9598     1.9016     0.0169 H       
  21 H21           -0.9251    -0.5579     0.0082 H       
  22 H22            3.3627    -0.4775    -0.0337 H       
  23 H23           -0.6114    -4.4692    -2.0428 H       
  24 H24            0.9766    -4.6715     0.5561 H       
  25 H25           -0.7540    -2.3867    -0.0030 H       
  26 H26            1.1448     3.9513     1.0394 H       
  27 H27            2.0202     3.9757    -0.5102 H       
  28 H28            0.2406     3.9424    -0.4938 H       
  29 H29            1.6203    -4.6380    -3.1103 H       
  30 H30            1.5140    -3.1925    -2.0772 H       
  31 H31            2.3887    -4.6331    -1.5047 H       
  32 H32            3.9909     2.3861     1.0045 H       
  33 H33            4.4384     1.6338    -0.5454 H       
  34 H34            3.5140     3.1549    -0.5284 H       
  35 H35            1.1258    -6.7006    -0.8940 H       
  36 H36           -0.6486    -6.7329    -1.0315 H       
  37 H37            0.3574    -6.7056    -2.4996 H       
  38 H38           -2.6631    -6.2306     2.3026 H       
  39 H39           -3.4314    -6.2355     0.6971 H       
  40 H40           -2.6255    -7.7025     1.3025 H       
@<TRIPOS>BOND
   1    1    2 ar
   2    1    3 ar
   3    1   20 1
   4    2    6 ar
   5    2   21 1
   6    3    4 ar
   7    3   14 1
   8    4    5 ar
   9    4   16 1
  10    5    6 ar
  11    5   22 1
  12    6    7 1
  13    7    8 2
  14    7   11 am
  15    9   15 1
  16    9   17 1
  17    9   10 1
  18    9   23 1
  19   10   12 1
  20   10   11 1
  21   10   24 1
  22   11   25 1
  23   12   13 1
  24   12   18 2
  25   13   19 1
  26   14   26 1
  27   14   27 1
  28   14   28 1
  29   15   29 1
  30   15   30 1
  31   15   31 1
  32   16   32 1
  33   16   33 1
  34   16   34 1
  35   17   35 1
  36   17   36 1
  37   17   37 1
  38   19   38 1
  39   19   39 1
  40   19   40 1

#	End of record

