#	Name: ASD03730237
#	Creating user name:	WinNT
#	Creation time:	15. 06. 2019 20:44

#	Modifying user name:	WinNT
#	Modification time:	15. 06. 2019 20:44

#	Program:	/corina/corina34_cracker 3.40 0067  02.08.2006

@<TRIPOS>MOLECULE
ASD03730237
  59   64    0    0    0
SMALL
NO_CHARGES


@<TRIPOS>ATOM
   1 O1            -0.2606     1.2571     0.5868 O.3     
   2 C2            -0.2159    -0.1815     0.6277 C.3     
   3 O3             0.9618    -0.5089    -0.1331 O.3     
   4 C4             1.7881     0.5713    -0.0102 C.ar    
   5 C5             1.0353     1.6577     0.4294 C.ar    
   6 C6             3.1444     0.7173    -0.2392 C.ar    
   7 C7             3.7653     1.9463    -0.0378 C.ar    
   8 C8             3.0004     3.0279     0.3883 C.ar    
   9 C9             1.6494     2.8832     0.6253 C.ar    
  10 O10            5.0758     2.2948    -0.1829 O.3     
  11 C11            3.9346     4.2046     0.4790 C.3     
  12 C12            5.1774     3.7281    -0.2856 C.3     
  13 N13            3.3449     6.3831     0.8377 N.am    
  14 C14            3.3468     5.4451    -0.1303 C.2     
  15 C15            4.2564     4.5725     1.8966 C.ar    
  16 C16            4.8109     3.8815     2.9650 C.ar    
  17 C17            4.9848     4.5232     4.1907 C.ar    
  18 C18            4.6036     5.8428     4.3321 C.ar    
  19 C19            4.0520     6.5295     3.2697 C.ar    
  20 C20            3.8728     5.9014     2.0385 C.ar    
  21 O21            2.9520     5.5772    -1.2695 O.2     
  22 C22            6.3860     2.1352     2.1196 C.ar    
  23 C23            5.2172     2.4633     2.8034 C.ar    
  24 C24            4.4341     1.4355     3.3350 C.ar    
  25 C25            4.8567     0.1290     3.1576 C.ar    
  26 C26            6.0293    -0.1145     2.4666 C.ar    
  27 N27            6.7481     0.8769     1.9763 N.ar    
  28 C28            3.1620     1.7413     4.0829 C.3     
  29 F29            2.5077     0.5456     4.3984 F       
  30 F30            3.4680     2.4304     5.2613 F       
  31 F31            2.3294     2.5316     3.2833 F       
  32 C32            2.8476     7.7486     0.6525 C.3     
  33 C33            1.3578     7.7999     0.9968 C.3     
  34 C34            0.8384     9.2260     0.8033 C.3     
  35 C35           -0.6514     9.2774     1.1477 C.3     
  36 C36           -1.1707    10.7035     0.9542 C.3     
  37 H37           -0.1181    -0.5326     1.6549 H       
  38 H38           -1.1043    -0.6057     0.1598 H       
  39 H39            3.7256    -0.1283    -0.5763 H       
  40 H40            1.0687     3.7283     0.9645 H       
  41 H41            6.0881     4.0870     0.1939 H       
  42 H42            5.1363     4.0454    -1.3275 H       
  43 H43            5.4154     3.9905     5.0256 H       
  44 H44            4.7377     6.3409     5.2810 H       
  45 H45            3.7575     7.5612     3.3931 H       
  46 H46            6.9984     2.9195     1.6997 H       
  47 H47            4.2770    -0.6909     3.5551 H       
  48 H48            6.3620    -1.1324     2.3263 H       
  49 H49            3.3954     8.4266     1.3069 H       
  50 H50            2.9913     8.0499    -0.3852 H       
  51 H51            0.8100     7.1219     0.3424 H       
  52 H52            1.2141     7.4986     2.0344 H       
  53 H53            1.3862     9.9041     1.4578 H       
  54 H54            0.9821     9.5274    -0.2343 H       
  55 H55           -1.1992     8.5993     0.4932 H       
  56 H56           -0.7951     8.9760     2.1853 H       
  57 H57           -0.6230    11.3815     1.6086 H       
  58 H58           -1.0271    11.0048    -0.0835 H       
  59 H59           -2.2321    10.7401     1.1995 H       
@<TRIPOS>BOND
   1    1    2 1
   2    1    5 1
   3    2    3 1
   4    2   37 1
   5    2   38 1
   6    3    4 1
   7    4    5 ar
   8    4    6 ar
   9    5    9 ar
  10    6    7 ar
  11    6   39 1
  12    7    8 ar
  13    7   10 1
  14    8    9 ar
  15    8   11 1
  16    9   40 1
  17   10   12 1
  18   11   12 1
  19   11   14 1
  20   11   15 1
  21   12   41 1
  22   12   42 1
  23   13   14 am
  24   13   20 1
  25   13   32 1
  26   14   21 2
  27   15   16 ar
  28   15   20 ar
  29   16   17 ar
  30   16   23 1
  31   17   18 ar
  32   17   43 1
  33   18   19 ar
  34   18   44 1
  35   19   20 ar
  36   19   45 1
  37   22   23 ar
  38   22   27 ar
  39   22   46 1
  40   23   24 ar
  41   24   25 ar
  42   24   28 1
  43   25   26 ar
  44   25   47 1
  45   26   27 ar
  46   26   48 1
  47   28   29 1
  48   28   30 1
  49   28   31 1
  50   32   33 1
  51   32   49 1
  52   32   50 1
  53   33   34 1
  54   33   51 1
  55   33   52 1
  56   34   35 1
  57   34   53 1
  58   34   54 1
  59   35   36 1
  60   35   55 1
  61   35   56 1
  62   36   57 1
  63   36   58 1
  64   36   59 1

#	End of record

