#	Name: ASD02198403
#	Creating user name:	WinNT
#	Creation time:	15. 06. 2019 20:19

#	Modifying user name:	WinNT
#	Modification time:	15. 06. 2019 20:19

#	Program:	/corina/corina34_cracker 3.40 0067  02.08.2006

@<TRIPOS>MOLECULE
ASD02198403
  41   44    0    0    0
SMALL
NO_CHARGES


@<TRIPOS>ATOM
   1 C1            -0.2652     0.8861    -0.3020 C.2     
   2 C2            -0.1104    -0.4538    -0.3039 C.2     
   3 S3             1.3122     1.6580    -0.2037 S.3     
   4 C4             2.1110     0.0916    -0.1699 C.2     
   5 C5             1.1976    -0.8829    -0.2312 C.2     
   6 S6             3.8527    -0.1563    -0.0713 S.o2    
   7 N7             4.4084    -0.3517    -1.6189 N.am    
   8 C8             4.2720     0.6822    -2.5444 C.ar    
   9 C9             4.8838     1.9332    -2.3093 C.ar    
  10 C10            4.7290     2.9651    -3.2667 C.ar    
  11 C11            3.9742     2.7312    -4.4273 C.ar    
  12 C12            3.3951     1.5148    -4.6274 C.ar    
  13 C13            3.5438     0.4895    -3.6984 C.ar    
  14 N14            5.6003     2.1527    -1.2037 N.ar    
  15 C15            6.1703     3.3117    -0.9796 C.ar    
  16 C16            6.0578     4.3696    -1.8794 C.ar    
  17 C17            5.3399     4.2117    -3.0303 C.ar    
  18 O18            4.4055     1.0640     0.4025 O.2     
  19 O19            4.0441    -1.4025     0.5842 O.2     
  20 C20           -1.5584     1.5952    -0.3773 C.ar    
  21 N21           -2.6884     0.9000    -0.4545 N.ar    
  22 C22            2.8898    -0.8445    -3.9514 C.3     
  23 C23           -1.5852     2.9909    -0.3610 C.ar    
  24 C24           -2.8044     3.6401    -0.4317 C.ar    
  25 C25           -3.9596     2.8746    -0.5166 C.ar    
  26 C26           -3.8616     1.4956    -0.5227 C.ar    
  27 H27           -0.9453    -1.1366    -0.3579 H       
  28 H28            1.4648    -1.9292    -0.2238 H       
  29 H29            4.8289    -1.1854    -1.8816 H       
  30 H30            3.8528     3.5150    -5.1604 H       
  31 H31            2.8157     1.3421    -5.5223 H       
  32 H32            6.7417     3.4504    -0.0737 H       
  33 H33            6.5381     5.3133    -1.6671 H       
  34 H34            5.2425     5.0207    -3.7391 H       
  35 H35            3.5767    -1.4872    -4.5020 H       
  36 H36            2.6385    -1.3123    -2.9996 H       
  37 H37            1.9813    -0.6987    -4.5357 H       
  38 H38           -0.6671     3.5556    -0.2938 H       
  39 H39           -2.8567     4.7188    -0.4208 H       
  40 H40           -4.9267     3.3522    -0.5728 H       
  41 H41           -4.7590     0.8982    -0.5886 H       
@<TRIPOS>BOND
   1    1    2 2
   2    1    3 1
   3    1   20 1
   4    2    5 1
   5    2   27 1
   6    3    4 1
   7    4    5 2
   8    4    6 1
   9    5   28 1
  10    6    7 am
  11    6   18 2
  12    6   19 2
  13    7    8 1
  14    7   29 1
  15    8    9 ar
  16    8   13 ar
  17    9   10 ar
  18    9   14 ar
  19   10   11 ar
  20   10   17 ar
  21   11   12 ar
  22   11   30 1
  23   12   13 ar
  24   12   31 1
  25   13   22 1
  26   14   15 ar
  27   15   16 ar
  28   15   32 1
  29   16   17 ar
  30   16   33 1
  31   17   34 1
  32   20   21 ar
  33   20   23 ar
  34   21   26 ar
  35   22   35 1
  36   22   36 1
  37   22   37 1
  38   23   24 ar
  39   23   38 1
  40   24   25 ar
  41   24   39 1
  42   25   26 ar
  43   25   40 1
  44   26   41 1

#	End of record

