#	Name: ASD01901040
#	Creating user name:	WinNT
#	Creation time:	15. 06. 2019 19:53

#	Modifying user name:	WinNT
#	Modification time:	15. 06. 2019 19:53

#	Program:	/corina/corina34_cracker 3.40 0067  02.08.2006

@<TRIPOS>MOLECULE
ASD01901040
  40   42    0    0    0
SMALL
NO_CHARGES


@<TRIPOS>ATOM
   1 C1             0.8140     2.4980    -0.1111 C.ar    
   2 C2             1.9651     2.8197     0.6050 C.ar    
   3 C3             3.1023     2.0463     0.4341 C.ar    
   4 C4             3.0488     0.9775    -0.4473 C.ar    
   5 C5             1.8699     0.7155    -1.1264 C.ar    
   6 N6             0.8049     1.4658    -0.9455 N.ar    
   7 C7            -0.4117     3.3110     0.0650 C.2     
   8 O8            -0.4104     4.2541     0.8314 O.2     
   9 N9            -1.5283     3.0047    -0.6249 N.am    
  10 C10           -2.7120     3.7104    -0.3880 C.ar    
  11 C11           -2.6660     5.0649    -0.0843 C.ar    
  12 C12           -3.8370     5.7590     0.1486 C.ar    
  13 C13           -5.0544     5.1068     0.0802 C.ar    
  14 C14           -5.1038     3.7582    -0.2220 C.ar    
  15 C15           -3.9369     3.0595    -0.4616 C.ar    
  16 S16           -6.5460     5.9958     0.3792 S.o2    
  17 O17           -7.5372     5.0249     0.6859 O.2     
  18 O18           -6.2080     7.0643     1.2529 O.2     
  19 N19           -6.9990     6.6896    -1.0546 N.am    
  20 C20           -6.1637     7.6222    -1.6738 C.ar    
  21 C21           -5.9063     7.5299    -3.0358 C.ar    
  22 C22           -5.0803     8.4540    -3.6450 C.ar    
  23 C23           -4.5097     9.4703    -2.9007 C.ar    
  24 C24           -4.7638     9.5650    -1.5447 C.ar    
  25 C25           -5.5931     8.6474    -0.9302 C.ar    
  26 H26            1.9712     3.6600     1.2833 H       
  27 H27            4.0096     2.2712     0.9749 H       
  28 H28            3.9178     0.3555    -0.6034 H       
  29 H29            1.8249    -0.1161    -1.8141 H       
  30 H30           -1.5107     2.2948    -1.2857 H       
  31 H31           -1.7154     5.5747    -0.0300 H       
  32 H32           -3.8018     6.8123     0.3849 H       
  33 H33           -6.0562     3.2517    -0.2744 H       
  34 H34           -3.9763     2.0073    -0.7016 H       
  35 H35           -7.8444     6.4483    -1.4645 H       
  36 H36           -6.3513     6.7363    -3.6175 H       
  37 H37           -4.8794     8.3826    -4.7037 H       
  38 H38           -3.8638    10.1914    -3.3795 H       
  39 H39           -4.3166    10.3599    -0.9664 H       
  40 H40           -5.7947     8.7246     0.1280 H       
@<TRIPOS>BOND
   1    1    2 ar
   2    1    6 ar
   3    1    7 1
   4    2    3 ar
   5    2   26 1
   6    3    4 ar
   7    3   27 1
   8    4    5 ar
   9    4   28 1
  10    5    6 ar
  11    5   29 1
  12    7    8 2
  13    7    9 am
  14    9   10 1
  15    9   30 1
  16   10   11 ar
  17   10   15 ar
  18   11   12 ar
  19   11   31 1
  20   12   13 ar
  21   12   32 1
  22   13   14 ar
  23   13   16 1
  24   14   15 ar
  25   14   33 1
  26   15   34 1
  27   16   17 2
  28   16   18 2
  29   16   19 am
  30   19   20 1
  31   19   35 1
  32   20   21 ar
  33   20   25 ar
  34   21   22 ar
  35   21   36 1
  36   22   23 ar
  37   22   37 1
  38   23   24 ar
  39   23   38 1
  40   24   25 ar
  41   24   39 1
  42   25   40 1

#	End of record

