#	Name: ASD01911117
#	Creating user name:	WinNT
#	Creation time:	15. 06. 2019 19:57

#	Modifying user name:	WinNT
#	Modification time:	15. 06. 2019 19:57

#	Program:	/corina/corina34_cracker 3.40 0067  02.08.2006

@<TRIPOS>MOLECULE
ASD01911117
  48   51    0    0    0
SMALL
NO_CHARGES


@<TRIPOS>ATOM
   1 C1             0.1174     1.0168     0.1941 C.2     
   2 O2             1.1326     1.6833     0.2437 O.2     
   3 C3             0.2040    -0.4543     0.0748 C.ar    
   4 C4             1.2099    -1.0369    -0.6978 C.ar    
   5 C5             0.3662    -3.2097    -0.1486 C.ar    
   6 C6            -0.7163    -1.2668     0.7390 C.ar    
   7 C7             1.2851    -2.4102    -0.8050 C.ar    
   8 C8            -0.6299    -2.6388     0.6235 C.ar    
   9 C9             0.4542    -4.7092    -0.2706 C.3     
  10 N10           -1.0873     1.6183     0.2533 N.am    
  11 C11           -2.3206     0.8453     0.0528 C.3     
  12 C12           -3.1496     1.5162    -1.0469 C.3     
  13 C13           -3.3803     2.9845    -0.6823 C.3     
  14 C14           -2.0338     3.7053    -0.5849 C.3     
  15 C15           -1.1924     3.0582     0.5257 C.3     
  16 O16           -5.4033     0.6868    -0.2190 O.3     
  17 N17           -6.3553     0.0681    -0.6459 N.2     
  18 C18           -6.1543    -0.2629    -1.8918 C.2     
  19 N19           -4.9428     0.2155    -2.2429 N.2     
  20 C20           -4.4775     0.8150    -1.1743 C.2     
  21 O21           -7.0051    -0.9588    -2.6862 O.3     
  22 C22           -8.1409    -1.4524    -2.1266 C.ar    
  23 C23           -8.4754    -1.1167    -0.8228 C.ar    
  24 C24           -9.6322    -1.6206    -0.2556 C.ar    
  25 C25          -10.4550    -2.4593    -0.9894 C.ar    
  26 C26          -10.1220    -2.7940    -2.2883 C.ar    
  27 C27           -8.9704    -2.2881    -2.8603 C.ar    
  28 F28           -9.9592    -1.2951     1.0141 F       
  29 H29            1.9276    -0.4139    -1.2109 H       
  30 H30           -1.4941    -0.8224     1.3422 H       
  31 H31            2.0627    -2.8623    -1.4028 H       
  32 H32           -1.3441    -3.2685     1.1333 H       
  33 H33            1.0901    -5.1016     0.5229 H       
  34 H34           -0.5433    -5.1400    -0.1834 H       
  35 H35            0.8794    -4.9706    -1.2396 H       
  36 H36           -2.0695    -0.1718    -0.2479 H       
  37 H37           -2.8930     0.8237     0.9802 H       
  38 H38           -2.6137     1.4564    -1.9942 H       
  39 H39           -3.9909     3.4580    -1.4512 H       
  40 H40           -3.8944     3.0441     0.2770 H       
  41 H41           -1.5084     3.6249    -1.5365 H       
  42 H42           -2.2000     4.7563    -0.3482 H       
  43 H43           -1.6747     3.2133     1.4908 H       
  44 H44           -0.1967     3.5016     0.5370 H       
  45 H45           -7.8333    -0.4631    -0.2511 H       
  46 H46          -11.3577    -2.8526    -0.5457 H       
  47 H47          -10.7650    -3.4480    -2.8585 H       
  48 H48           -8.7138    -2.5466    -3.8771 H       
@<TRIPOS>BOND
   1    1    2 2
   2    1    3 1
   3    1   10 am
   4    3    4 ar
   5    3    6 ar
   6    4    7 ar
   7    4   29 1
   8    5    7 ar
   9    5    8 ar
  10    5    9 1
  11    6    8 ar
  12    6   30 1
  13    7   31 1
  14    8   32 1
  15    9   33 1
  16    9   34 1
  17    9   35 1
  18   10   11 1
  19   10   15 1
  20   11   12 1
  21   11   36 1
  22   11   37 1
  23   12   13 1
  24   12   20 1
  25   12   38 1
  26   13   14 1
  27   13   39 1
  28   13   40 1
  29   14   15 1
  30   14   41 1
  31   14   42 1
  32   15   43 1
  33   15   44 1
  34   16   17 1
  35   16   20 1
  36   17   18 2
  37   18   19 1
  38   18   21 1
  39   19   20 2
  40   21   22 1
  41   22   23 ar
  42   22   27 ar
  43   23   24 ar
  44   23   45 1
  45   24   25 ar
  46   24   28 1
  47   25   26 ar
  48   25   46 1
  49   26   27 ar
  50   26   47 1
  51   27   48 1

#	End of record

