#	Name: ASD01880281
#	Creating user name:	WinNT
#	Creation time:	15. 06. 2019 19:40

#	Modifying user name:	WinNT
#	Modification time:	15. 06. 2019 19:40

#	Program:	/corina/corina34_cracker 3.40 0067  02.08.2006

@<TRIPOS>MOLECULE
ASD01880281
  39   41    0    0    0
SMALL
NO_CHARGES


@<TRIPOS>ATOM
   1 C1            -0.0162     1.3457     0.0094 C.2     
   2 C2             0.0021    -0.0041     0.0020 C.2     
   3 N3             1.1770    -0.6872    -0.0124 N.am    
   4 C4             2.3580    -0.0421    -0.0202 C.2     
   5 C5             2.3954     1.3585    -0.0135 C.2     
   6 C6             1.2011     2.0642     0.0017 C.2     
   7 O7             3.3997    -0.6790    -0.0328 O.2     
   8 C8             1.1574    -2.1521    -0.0191 C.3     
   9 C9             1.1371    -2.6477    -1.4422 C.ar    
  10 C10            2.3248    -2.8909    -2.1060 C.ar    
  11 C11            2.3078    -3.3452    -3.4118 C.ar    
  12 C12            1.1030    -3.5566    -4.0546 C.ar    
  13 C13           -0.0875    -3.3137    -3.3904 C.ar    
  14 C14           -0.0693    -2.8643    -2.0811 C.ar    
  15 F15           -1.2660    -3.5201    -4.0179 F       
  16 C16            1.2015     3.5448     0.0087 C.ar    
  17 C17            0.6805     4.2494    -1.0773 C.ar    
  18 C18            0.6820     5.6275    -1.0674 C.ar    
  19 C19            1.2013     6.3152     0.0222 C.ar    
  20 C20            1.7208     5.6169     1.1049 C.ar    
  21 C21            1.7176     4.2388     1.1038 C.ar    
  22 O22            1.2017     7.6732     0.0286 O.3     
  23 C23            1.7509     8.3163     1.1804 C.3     
  24 H24           -0.9577     1.8749     0.0168 H       
  25 H25           -0.9304    -0.5490     0.0080 H       
  26 H26            3.3404     1.8813    -0.0194 H       
  27 H27            2.0473    -2.5297     0.4845 H       
  28 H28            0.2676    -2.5059     0.5016 H       
  29 H29            3.2669    -2.7255    -1.6045 H       
  30 H30            3.2364    -3.5345    -3.9297 H       
  31 H31            1.0900    -3.9108    -5.0748 H       
  32 H32           -0.9972    -2.6746    -1.5621 H       
  33 H33            0.2769     3.7154    -1.9249 H       
  34 H34            0.2792     6.1734    -1.9077 H       
  35 H35            2.1238     6.1547     1.9504 H       
  36 H36            2.1212     3.6966     1.9461 H       
  37 H37            1.6896     9.3975     1.0567 H       
  38 H38            1.1881     8.0194     2.0654 H       
  39 H39            2.7940     8.0226     1.2978 H       
@<TRIPOS>BOND
   1    1    2 2
   2    1    6 1
   3    1   24 1
   4    2    3 1
   5    2   25 1
   6    3    4 am
   7    3    8 1
   8    4    5 1
   9    4    7 2
  10    5    6 2
  11    5   26 1
  12    6   16 1
  13    8    9 1
  14    8   27 1
  15    8   28 1
  16    9   10 ar
  17    9   14 ar
  18   10   11 ar
  19   10   29 1
  20   11   12 ar
  21   11   30 1
  22   12   13 ar
  23   12   31 1
  24   13   14 ar
  25   13   15 1
  26   14   32 1
  27   16   17 ar
  28   16   21 ar
  29   17   18 ar
  30   17   33 1
  31   18   19 ar
  32   18   34 1
  33   19   20 ar
  34   19   22 1
  35   20   21 ar
  36   20   35 1
  37   21   36 1
  38   22   23 1
  39   23   37 1
  40   23   38 1
  41   23   39 1

#	End of record

