#	Name: ASD01150356
#	Creating user name:	WinNT
#	Creation time:	15. 06. 2019 19:04

#	Modifying user name:	WinNT
#	Modification time:	15. 06. 2019 19:04

#	Program:	/corina/corina34_cracker 3.40 0067  02.08.2006

@<TRIPOS>MOLECULE
ASD01150356
  49   51    0    0    0
SMALL
NO_CHARGES


@<TRIPOS>ATOM
   1 C1             1.0907     1.2612    -0.4741 C.ar    
   2 C2             1.4162    -0.0309    -0.8381 C.ar    
   3 C3             1.1002    -1.0871    -0.0048 C.ar    
   4 C4             0.4539    -0.8524     1.2021 C.ar    
   5 C5             0.1255     0.4443     1.5710 C.ar    
   6 C6             0.4440     1.5029     0.7321 C.ar    
   7 N7             0.1151     2.8119     1.1004 N.am    
   8 C8            -1.1332     3.0894     1.5157 C.2     
   9 N9            -1.4850     4.3370     1.8781 N.am    
  10 C10           -0.5797     5.3361     1.8284 C.2     
  11 C11            0.7892     5.0396     1.3746 C.2     
  12 N12            1.0920     3.8125     1.0366 N.2     
  13 N13            1.7490     6.0492     1.3115 N.pl3   
  14 O14           -0.8903     6.4668     2.1537 O.2     
  15 C15           -2.8526     4.6105     2.3267 C.3     
  16 O16           -1.9589     2.1977     1.5643 O.2     
  17 N17            0.1340    -1.9226     2.0449 N.am    
  18 C18            0.9551    -2.9886     2.1219 C.2     
  19 C19            0.5596    -4.1863     2.9465 C.3     
  20 O20            2.0123    -2.9839     1.5274 O.2     
  21 C21           -2.9385     4.4232     3.8196 C.ar    
  22 C22           -2.6947     5.4896     4.6648 C.ar    
  23 C23           -2.7734     5.3185     6.0341 C.ar    
  24 C24           -3.0961     4.0797     6.5587 C.ar    
  25 C25           -3.3400     3.0128     5.7123 C.ar    
  26 C26           -3.2666     3.1865     4.3430 C.ar    
  27 Cl27          -3.1945     3.8638     8.2784 Cl      
  28 C28            3.1396     5.7189     0.9901 C.3     
  29 C29            1.3667     7.4403     1.5666 C.3     
  30 H30            1.3430     2.0849    -1.1255 H       
  31 H31            1.9183    -0.2162    -1.7761 H       
  32 H32            1.3557    -2.0962    -0.2925 H       
  33 H33           -0.3773     0.6293     2.5087 H       
  34 H34           -3.1198     5.6364     2.0732 H       
  35 H35           -3.5408     3.9235     1.8342 H       
  36 H36           -0.6787    -1.8972     2.5738 H       
  37 H37           -0.4143    -4.0082     3.4022 H       
  38 H38            0.5055    -5.0666     2.3059 H       
  39 H39            1.3018    -4.3506     3.7277 H       
  40 H40           -2.4424     6.4565     4.2552 H       
  41 H41           -2.5825     6.1516     6.6943 H       
  42 H42           -3.5920     2.0455     6.1212 H       
  43 H43           -3.4569     2.3538     3.6822 H       
  44 H44            3.2839     5.7652    -0.0893 H       
  45 H45            3.8043     6.4328     1.4765 H       
  46 H46            3.3652     4.7129     1.3441 H       
  47 H47            1.3750     7.6284     2.6402 H       
  48 H48            2.0748     8.1076     1.0753 H       
  49 H49            0.3658     7.6199     1.1740 H       
@<TRIPOS>BOND
   1    1    2 ar
   2    1    6 ar
   3    1   30 1
   4    2    3 ar
   5    2   31 1
   6    3    4 ar
   7    3   32 1
   8    4    5 ar
   9    4   17 1
  10    5    6 ar
  11    5   33 1
  12    6    7 1
  13    7    8 am
  14    7   12 1
  15    8    9 am
  16    8   16 2
  17    9   10 am
  18    9   15 1
  19   10   11 1
  20   10   14 2
  21   11   12 2
  22   11   13 1
  23   13   28 1
  24   13   29 1
  25   15   21 1
  26   15   34 1
  27   15   35 1
  28   17   18 am
  29   17   36 1
  30   18   19 1
  31   18   20 2
  32   19   37 1
  33   19   38 1
  34   19   39 1
  35   21   22 ar
  36   21   26 ar
  37   22   23 ar
  38   22   40 1
  39   23   24 ar
  40   23   41 1
  41   24   25 ar
  42   24   27 1
  43   25   26 ar
  44   25   42 1
  45   26   43 1
  46   28   44 1
  47   28   45 1
  48   28   46 1
  49   29   47 1
  50   29   48 1
  51   29   49 1

#	End of record

