#	Name: ASD03910099
#	Creating user name:	WinNT
#	Creation time:	15. 06. 2019 20:47

#	Modifying user name:	WinNT
#	Modification time:	15. 06. 2019 20:47

#	Program:	/corina/corina34_cracker 3.40 0067  02.08.2006

@<TRIPOS>MOLECULE
ASD03910099
  37   38    0    0    0
SMALL
NO_CHARGES


@<TRIPOS>ATOM
   1 C1            -0.0173     1.4248     0.0099 C.3     
   2 O2             0.0021    -0.0041     0.0020 O.3     
   3 C3             0.3338    -0.6208     1.1612 C.ar    
   4 C4             0.3724    -2.0240     1.2238 C.ar    
   5 C5             0.7140    -2.6535     2.4176 C.ar    
   6 C6             1.0156    -1.8854     3.5438 C.ar    
   7 C7             0.9736    -0.4857     3.4685 C.ar    
   8 C8             0.6414     0.1345     2.2865 C.ar    
   9 C9             1.3764    -2.5430     4.8070 C.2     
  10 O10            1.6384    -1.8753     5.7851 O.2     
  11 C11            0.0518    -2.8270     0.0294 C.2     
  12 O12           -0.2464    -2.2754    -1.0113 O.2     
  13 O13            0.0895    -4.1724     0.0921 O.3     
  14 O14            1.3233     1.9194    -0.0003 O.3     
  15 C15            1.9971     1.8455    -1.1727 C.ar    
  16 C16            3.3194     2.3138    -1.2534 C.ar    
  17 C17            4.0079     2.2357    -2.4609 C.ar    
  18 C18            3.3790     1.6924    -3.5827 C.ar    
  19 C19            2.0590     1.2284    -3.4894 C.ar    
  20 C20            1.3822     1.3012    -2.2940 C.ar    
  21 C21            4.0994     1.6073    -4.8602 C.2     
  22 O22            3.5526     1.1352    -5.8345 O.2     
  23 C23            3.9753     2.8865    -0.0634 C.2     
  24 O24            3.3723     2.9540     0.9892 O.2     
  25 O25            5.2434     3.3349    -0.1434 O.3     
  26 H26           -0.5445     1.7859    -0.8732 H       
  27 H27           -0.5275     1.7763     0.9067 H       
  28 H28            0.7451    -3.7317     2.4725 H       
  29 H29            1.2071     0.1073     4.3404 H       
  30 H30            0.6154     1.2130     2.2338 H       
  31 H31            1.4084    -3.6210     4.8647 H       
  32 H32           -0.1284    -4.6559    -0.7165 H       
  33 H33            5.0244     2.5942    -2.5296 H       
  34 H34            1.5735     0.8083    -4.3579 H       
  35 H35            0.3673     0.9377    -2.2275 H       
  36 H36            5.1159     1.9651    -4.9318 H       
  37 H37            5.6309     3.7018     0.6630 H       
@<TRIPOS>BOND
   1    1    2 1
   2    1   14 1
   3    1   26 1
   4    1   27 1
   5    2    3 1
   6    3    4 ar
   7    3    8 ar
   8    4    5 ar
   9    4   11 1
  10    5    6 ar
  11    5   28 1
  12    6    7 ar
  13    6    9 1
  14    7    8 ar
  15    7   29 1
  16    8   30 1
  17    9   10 2
  18    9   31 1
  19   11   12 2
  20   11   13 1
  21   13   32 1
  22   14   15 1
  23   15   16 ar
  24   15   20 ar
  25   16   17 ar
  26   16   23 1
  27   17   18 ar
  28   17   33 1
  29   18   19 ar
  30   18   21 1
  31   19   20 ar
  32   19   34 1
  33   20   35 1
  34   21   22 2
  35   21   36 1
  36   23   24 2
  37   23   25 1
  38   25   37 1

#	End of record

