#	Name: ASD05430704
#	Creating user name:	WinNT
#	Creation time:	15. 06. 2019 21:00

#	Modifying user name:	WinNT
#	Modification time:	15. 06. 2019 21:00

#	Program:	/corina/corina34_cracker 3.40 0067  02.08.2006

@<TRIPOS>MOLECULE
ASD05430704
  27   28    0    0    0
SMALL
NO_CHARGES


@<TRIPOS>ATOM
   1 C1            -0.0165     1.3645     0.0095 C.2     
   2 C2             0.0021    -0.0041     0.0020 C.2     
   3 C3            -1.2271    -0.6868     0.0106 C.2     
   4 N4            -2.3502    -0.0249     0.0253 N.2     
   5 N5            -2.3945     1.2581     0.0326 N.am    
   6 C6            -1.2741     2.0051     0.0310 C.2     
   7 C7            -5.2362     2.4738    -1.8483 C.ar    
   8 C8            -4.4808     1.5307    -1.1765 C.ar    
   9 C9            -3.6978     1.9268     0.0487 C.3     
  10 C10           -5.9549     2.1116    -2.9717 C.ar    
  11 C11           -5.9184     0.8036    -3.4243 C.ar    
  12 C12           -5.1616    -0.1401    -2.7507 C.ar    
  13 C13           -4.4436     0.2244    -1.6275 C.ar    
  14 F14           -6.6210     0.4483    -4.5222 F       
  15 C15           -4.4689     1.5112     1.3031 C.3     
  16 Cl16           1.5041    -0.8743    -0.0182 Cl      
  17 Cl17           1.4574     2.2817     0.0004 Cl      
  18 O18           -1.3454     3.2238     0.0380 O.2     
  19 H19           -1.2410    -1.7667     0.0046 H       
  20 H20           -5.2681     3.4930    -1.4924 H       
  21 H21           -3.5519     3.0070     0.0531 H       
  22 H22           -6.5452     2.8484    -3.4961 H       
  23 H23           -5.1320    -1.1606    -3.1031 H       
  24 H24           -3.8529    -0.5114    -1.1022 H       
  25 H25           -4.6148     0.4310     1.2987 H       
  26 H26           -3.9026     1.7977     2.1893 H       
  27 H27           -5.4386     2.0088     1.3151 H       
@<TRIPOS>BOND
   1    1    2 2
   2    1   17 1
   3    1    6 1
   4    2    3 1
   5    2   16 1
   6    3    4 2
   7    3   19 1
   8    4    5 1
   9    5    6 am
  10    5    9 1
  11    6   18 2
  12    7    8 ar
  13    7   10 ar
  14    7   20 1
  15    8    9 1
  16    8   13 ar
  17    9   15 1
  18    9   21 1
  19   10   11 ar
  20   10   22 1
  21   11   12 ar
  22   11   14 1
  23   12   13 ar
  24   12   23 1
  25   13   24 1
  26   15   25 1
  27   15   26 1
  28   15   27 1

#	End of record

