#	Name: ASD01190155
#	Creating user name:	WinNT
#	Creation time:	15. 06. 2019 19:07

#	Modifying user name:	WinNT
#	Modification time:	15. 06. 2019 19:07

#	Program:	/corina/corina34_cracker 3.40 0067  02.08.2006

@<TRIPOS>MOLECULE
ASD01190155
  43   46    0    0    0
SMALL
NO_CHARGES


@<TRIPOS>ATOM
   1 N1            -0.0178     1.4608     0.0101 N.pl3   
   2 C2             0.0021    -0.0041     0.0020 C.3     
   3 C3             0.1484    -0.5200     1.4349 C.3     
   4 C4            -1.2844    -0.5207    -0.5890 C.ar    
   5 C5            -1.2659    -1.6109    -1.4387 C.ar    
   6 C6            -2.4459    -2.0847    -1.9808 C.ar    
   7 C7            -3.6445    -1.4686    -1.6729 C.ar    
   8 C8            -3.6630    -0.3789    -0.8225 C.ar    
   9 C9            -2.4835     0.0922    -0.2769 C.ar    
  10 F10           -0.9310    -0.0725     2.2042 F       
  11 F11            0.1674    -1.9189     1.4273 F       
  12 F12            1.3427    -0.0405     1.9836 F       
  13 N13            4.5878     4.5098    -0.0154 N.pl3   
  14 N14            4.0095     5.7832    -0.0035 N.2     
  15 C15            2.7102     5.6848     0.0074 C.2     
  16 C16            2.3689     4.2657     0.0028 C.ar    
  17 C17            1.1618     3.5574     0.0101 C.ar    
  18 C18            1.1844     2.1769     0.0024 C.ar    
  19 C19            2.4003     1.4922    -0.0124 C.ar    
  20 C20            3.5841     2.1722    -0.0191 C.ar    
  21 C21            3.5896     3.5643    -0.0117 C.ar    
  22 C22            5.9625     4.2410    -0.0341 C.ar    
  23 C23            6.8249     5.0767    -0.7315 C.ar    
  24 C24            8.1798     4.8099    -0.7487 C.ar    
  25 C25            8.6786     3.7100    -0.0711 C.ar    
  26 C26            7.8202     2.8753     0.6249 C.ar    
  27 C27            6.4654     3.1417     0.6494 C.ar    
  28 F28           10.0043     3.4505    -0.0895 F       
  29 H29           -0.8643     1.9343     0.0167 H       
  30 H30            0.8431    -0.3527    -0.5974 H       
  31 H31           -0.3295    -2.0922    -1.6793 H       
  32 H32           -2.4314    -2.9360    -2.6452 H       
  33 H33           -4.5663    -1.8383    -2.0970 H       
  34 H34           -4.5994     0.1026    -0.5822 H       
  35 H35           -2.4984     0.9412     0.3904 H       
  36 H36            2.0102     6.5072     0.0180 H       
  37 H37            0.2203     4.0863     0.0224 H       
  38 H38            2.4049     0.4122    -0.0182 H       
  39 H39            4.5176     1.6293    -0.0299 H       
  40 H40            6.4363     5.9344    -1.2603 H       
  41 H41            8.8508     5.4594    -1.2912 H       
  42 H42            8.2112     2.0180     1.1527 H       
  43 H43            5.7969     2.4933     1.1963 H       
@<TRIPOS>BOND
   1    1    2 1
   2    1   18 1
   3    1   29 1
   4    2    3 1
   5    2    4 1
   6    2   30 1
   7    3   10 1
   8    3   11 1
   9    3   12 1
  10    4    5 ar
  11    4    9 ar
  12    5    6 ar
  13    5   31 1
  14    6    7 ar
  15    6   32 1
  16    7    8 ar
  17    7   33 1
  18    8    9 ar
  19    8   34 1
  20    9   35 1
  21   13   14 1
  22   13   21 1
  23   13   22 1
  24   14   15 2
  25   15   16 1
  26   15   36 1
  27   16   17 ar
  28   16   21 ar
  29   17   18 ar
  30   17   37 1
  31   18   19 ar
  32   19   20 ar
  33   19   38 1
  34   20   21 ar
  35   20   39 1
  36   22   23 ar
  37   22   27 ar
  38   23   24 ar
  39   23   40 1
  40   24   25 ar
  41   24   41 1
  42   25   26 ar
  43   25   28 1
  44   26   27 ar
  45   26   42 1
  46   27   43 1

#	End of record

