#	Name: ASD08150645
#	Creating user name:	WinNT
#	Creation time:	15. 06. 2019 21:16

#	Modifying user name:	WinNT
#	Modification time:	15. 06. 2019 21:16

#	Program:	/corina/corina34_cracker 3.40 0067  02.08.2006

@<TRIPOS>MOLECULE
ASD08150645
  66   72    0    0    0
SMALL
NO_CHARGES


@<TRIPOS>ATOM
   1 N1             0.7407     2.8374     0.9354 N.am    
   2 C2             0.9853     1.5505     1.2497 C.2     
   3 C3             2.2504     0.9756     1.0131 C.2     
   4 C4             3.2452     1.7167     0.4618 C.2     
   5 C5             2.9912     3.0710     0.1300 C.ar    
   6 C6             3.9875     3.8835    -0.4442 C.ar    
   7 N7             3.7504     5.1324    -0.7497 N.ar    
   8 C8             2.5578     5.7092    -0.5373 C.ar    
   9 C9             1.4964     4.9668     0.0366 C.ar    
  10 C10            1.7205     3.6124     0.3787 C.ar    
  11 C11            0.2577     5.5774     0.2547 C.ar    
  12 C12            0.0814     6.9067    -0.0942 C.ar    
  13 C13            1.1365     7.6350    -0.6617 C.ar    
  14 C14            2.3468     7.0548    -0.8805 C.ar    
  15 O15            0.1005     0.8739     1.7458 O.2     
  16 C16           -1.2294     7.5620     0.1333 C.ar    
  17 C17           -0.5274     3.3839     1.1752 C.ar    
  18 C18           -1.5651     3.1853     0.2651 C.ar    
  19 C19           -2.7995     3.7421     0.5421 C.ar    
  20 C20           -2.9647     4.4774     1.7118 C.ar    
  21 N21           -1.9567     4.6459     2.5532 N.ar    
  22 C22           -0.7670     4.1238     2.3231 C.ar    
  23 N23           -4.2031     5.0421     2.0002 N.3     
  24 C24           -2.4211     6.8430    -0.0516 C.ar    
  25 N25           -3.5917     7.3956     0.1413 N.ar    
  26 C26           -3.7115     8.6713     0.5242 C.ar    
  27 C27           -2.5544     9.4636     0.7323 C.ar    
  28 C28           -1.2870     8.8885     0.5359 C.ar    
  29 C29           -4.0572     6.2105     2.8804 C.3     
  30 C30           -5.4338     6.8349     3.1231 C.3     
  31 O31           -6.3090     5.8475     3.6747 O.3     
  32 C32           -6.4745     4.6957     2.8431 C.3     
  33 C33           -5.1084     4.0497     2.5976 C.3     
  34 C34           -5.2997     8.0029     4.1022 C.3     
  35 C35           -7.3968     3.6921     3.5380 C.3     
  36 C36           -4.9778     9.2476     0.7259 C.ar    
  37 C37           -5.0748    10.5481     1.1152 C.ar    
  38 C38           -3.9361    11.3251     1.3193 C.ar    
  39 C39           -2.6926    10.8032     1.1338 C.ar    
  40 H40            2.4290    -0.0577     1.2716 H       
  41 H41            4.2162     1.2808     0.2790 H       
  42 H42            4.9657     3.4675    -0.6354 H       
  43 H43           -0.5557     5.0171     0.6915 H       
  44 H44            0.9859     8.6704    -0.9291 H       
  45 H45            3.1485     7.6306    -1.3186 H       
  46 H46           -1.4079     2.6101    -0.6354 H       
  47 H47           -3.6253     3.6085    -0.1409 H       
  48 H48            0.0304     4.2783     3.0349 H       
  49 H49           -2.3705     5.8094    -0.3607 H       
  50 H50           -0.3856     9.4640     0.6861 H       
  51 H51           -3.6264     5.8981     3.8316 H       
  52 H52           -3.4035     6.9433     2.4072 H       
  53 H53           -5.8414     7.1958     2.1787 H       
  54 H54           -6.9124     4.9944     1.8906 H       
  55 H55           -5.2221     3.2051     1.9180 H       
  56 H56           -4.6944     3.7027     3.5443 H       
  57 H57           -4.5391     8.6948     3.7404 H       
  58 H58           -6.2548     8.5220     4.1817 H       
  59 H59           -5.0094     7.6240     5.0822 H       
  60 H60           -8.3680     4.1539     3.7160 H       
  61 H61           -7.5225     2.8146     2.9037 H       
  62 H62           -6.9570     3.3928     4.4894 H       
  63 H63           -5.8709     8.6602     0.5720 H       
  64 H64           -6.0505    10.9852     1.2682 H       
  65 H65           -4.0416    12.3546     1.6282 H       
  66 H66           -1.8173    11.4148     1.2953 H       
@<TRIPOS>BOND
   1    1    2 am
   2    1   10 1
   3    1   17 1
   4    2    3 1
   5    2   15 2
   6    3    4 2
   7    3   40 1
   8    4    5 1
   9    4   41 1
  10    5    6 ar
  11    5   10 ar
  12    6    7 ar
  13    6   42 1
  14    7    8 ar
  15    8    9 ar
  16    8   14 ar
  17    9   10 ar
  18    9   11 ar
  19   11   12 ar
  20   11   43 1
  21   12   13 ar
  22   12   16 1
  23   13   14 ar
  24   13   44 1
  25   14   45 1
  26   16   24 ar
  27   16   28 ar
  28   17   18 ar
  29   17   22 ar
  30   18   19 ar
  31   18   46 1
  32   19   20 ar
  33   19   47 1
  34   20   21 ar
  35   20   23 1
  36   21   22 ar
  37   22   48 1
  38   23   29 1
  39   23   33 1
  40   24   25 ar
  41   24   49 1
  42   25   26 ar
  43   26   27 ar
  44   26   36 ar
  45   27   28 ar
  46   27   39 ar
  47   28   50 1
  48   29   30 1
  49   29   51 1
  50   29   52 1
  51   30   31 1
  52   30   34 1
  53   30   53 1
  54   31   32 1
  55   32   33 1
  56   32   35 1
  57   32   54 1
  58   33   55 1
  59   33   56 1
  60   34   57 1
  61   34   58 1
  62   34   59 1
  63   35   60 1
  64   35   61 1
  65   35   62 1
  66   36   37 ar
  67   36   63 1
  68   37   38 ar
  69   37   64 1
  70   38   39 ar
  71   38   65 1
  72   39   66 1

#	End of record

