#	Name: ASD03730956
#	Creating user name:	WinNT
#	Creation time:	15. 06. 2019 20:45

#	Modifying user name:	WinNT
#	Modification time:	15. 06. 2019 20:45

#	Program:	/corina/corina34_cracker 3.40 0067  02.08.2006

@<TRIPOS>MOLECULE
ASD03730956
  65   72    0    0    0
SMALL
NO_CHARGES


@<TRIPOS>ATOM
   1 C1            -0.0189     1.4721     0.0309 C.2     
   2 C2            -0.0010    -0.0058     0.0346 C.ar    
   3 C3             1.2147    -0.6923     0.0408 C.ar    
   4 C4             1.2243    -2.0715     0.0442 C.ar    
   5 C5             0.0326    -2.7749     0.0415 C.ar    
   6 C6            -1.1756    -2.1009     0.0349 C.ar    
   7 C7            -1.1994    -0.7213     0.0377 C.ar    
   8 O8             1.0264     2.0927     0.0332 O.2     
   9 N9            -1.1942     2.1318     0.0193 N.am    
  10 C10            2.5356    -2.8142     0.0504 C.3     
  11 O11           -0.9848    -3.2758     6.3022 O.3     
  12 C12           -1.0444    -3.5197     7.7199 C.3     
  13 O13           -0.1433    -4.6254     7.9153 O.3     
  14 C14            0.7678    -4.5382     6.9018 C.ar    
  15 C15            0.2493    -3.7091     5.9098 C.ar    
  16 C16            2.0185    -5.1078     6.7433 C.ar    
  17 C17            2.7657    -4.8601     5.5958 C.ar    
  18 C18            2.2337    -4.0368     4.6081 C.ar    
  19 C19            0.9897    -3.4625     4.7658 C.ar    
  20 O20            4.0098    -5.3020     5.2533 O.3     
  21 C21            3.2498    -3.9863     3.4986 C.3     
  22 C22            4.1938    -5.1494     3.8326 C.3     
  23 N23            2.9559    -3.0515     1.4336 N.am    
  24 C24            2.6210    -4.1467     2.1445 C.2     
  25 C25            3.9747    -2.6742     3.4476 C.ar    
  26 C26            4.7359    -1.9718     4.3551 C.ar    
  27 C27            5.2879    -0.7537     4.0009 C.ar    
  28 C28            5.0728    -0.2430     2.7337 C.ar    
  29 C29            4.3103    -0.9422     1.8215 C.ar    
  30 C30            3.7511    -2.1694     2.1692 C.ar    
  31 O31            1.9447    -5.0792     1.7646 O.2     
  32 C32           -1.2149     3.5222     0.1323 C.ar    
  33 C33           -0.2768     4.1711     0.9064 C.ar    
  34 C34           -0.2888     5.5575     1.0257 C.ar    
  35 C35           -1.2241     6.3104     0.3834 C.ar    
  36 C36           -2.1980     5.6879    -0.4156 C.ar    
  37 C37           -3.1761     6.4395    -1.0898 C.ar    
  38 C38           -4.1049     5.8040    -1.8551 C.ar    
  39 C39           -4.1024     4.4163    -1.9813 C.ar    
  40 C40           -3.1703     3.6566    -1.3427 C.ar    
  41 C41           -2.1927     4.2775    -0.5496 C.ar    
  42 H42            2.1455    -0.1445     0.0426 H       
  43 H43            0.0457    -3.8548     0.0442 H       
  44 H44           -2.1021    -2.6558     0.0324 H       
  45 H45           -2.1432    -0.1963     0.0375 H       
  46 H46           -2.0257     1.6398    -0.0676 H       
  47 H47            2.4149    -3.7689    -0.4615 H       
  48 H48            3.2921    -2.2201    -0.4624 H       
  49 H49           -0.7031    -2.6450     8.2736 H       
  50 H50           -2.0563    -3.7928     8.0193 H       
  51 H51            2.4176    -5.7490     7.5153 H       
  52 H52            0.5918    -2.8191     3.9950 H       
  53 H53            5.2266    -4.8882     3.6019 H       
  54 H54            3.8949    -6.0546     3.3041 H       
  55 H55            4.9024    -2.3724     5.3442 H       
  56 H56            5.8856    -0.2030     4.7121 H       
  57 H57            5.5036     0.7080     2.4572 H       
  58 H58            4.1464    -0.5367     0.8340 H       
  59 H59            0.4757     3.5970     1.4265 H       
  60 H60            0.4558     6.0443     1.6380 H       
  61 H61           -1.2176     7.3853     0.4883 H       
  62 H62           -3.1907     7.5157    -1.0006 H       
  63 H63           -4.8553     6.3838    -2.3721 H       
  64 H64           -4.8510     3.9363    -2.5943 H       
  65 H65           -3.1804     2.5819    -1.4492 H       
@<TRIPOS>BOND
   1    1    2 1
   2    1    8 2
   3    1    9 am
   4    2    3 ar
   5    2    7 ar
   6    3    4 ar
   7    3   42 1
   8    4    5 ar
   9    4   10 1
  10    5    6 ar
  11    5   43 1
  12    6    7 ar
  13    6   44 1
  14    7   45 1
  15    9   32 1
  16    9   46 1
  17   10   23 1
  18   10   47 1
  19   10   48 1
  20   11   12 1
  21   11   15 1
  22   12   13 1
  23   12   49 1
  24   12   50 1
  25   13   14 1
  26   14   15 ar
  27   14   16 ar
  28   15   19 ar
  29   16   17 ar
  30   16   51 1
  31   17   18 ar
  32   17   20 1
  33   18   19 ar
  34   18   21 1
  35   19   52 1
  36   20   22 1
  37   21   22 1
  38   21   24 1
  39   21   25 1
  40   22   53 1
  41   22   54 1
  42   23   24 am
  43   23   30 1
  44   24   31 2
  45   25   26 ar
  46   25   30 ar
  47   26   27 ar
  48   26   55 1
  49   27   28 ar
  50   27   56 1
  51   28   29 ar
  52   28   57 1
  53   29   30 ar
  54   29   58 1
  55   32   33 ar
  56   32   41 ar
  57   33   34 ar
  58   33   59 1
  59   34   35 ar
  60   34   60 1
  61   35   36 ar
  62   35   61 1
  63   36   37 ar
  64   36   41 ar
  65   37   38 ar
  66   37   62 1
  67   38   39 ar
  68   38   63 1
  69   39   40 ar
  70   39   64 1
  71   40   41 ar
  72   40   65 1

#	End of record

