#	Name: ASD01912208
#	Creating user name:	WinNT
#	Creation time:	15. 06. 2019 19:59

#	Modifying user name:	WinNT
#	Modification time:	15. 06. 2019 19:59

#	Program:	/corina/corina34_cracker 3.40 0067  02.08.2006

@<TRIPOS>MOLECULE
ASD01912208
  47   49    0    0    0
SMALL
NO_CHARGES


@<TRIPOS>ATOM
   1 C1             0.2996     1.0931    -0.3475 C.ar    
   2 C2             0.3934    -0.2870    -0.3576 C.ar    
   3 C3             1.6442    -0.8865    -0.2984 C.ar    
   4 C4             2.7631    -0.0762    -0.2308 C.ar    
   5 C5             2.5963     1.3113    -0.2245 C.ar    
   6 N6             1.3790     1.8445    -0.2827 N.ar    
   7 C7             3.7439     2.1650    -0.1548 C.1     
   8 C8             4.6847     2.8649    -0.0978 C.1     
   9 C9             5.8323     3.7187    -0.0282 C.2     
  10 N10            5.4209     7.6853    -0.9184 N.3     
  11 C11            6.7279     7.0286    -1.0463 C.3     
  12 C12            6.8745     5.9683     0.0511 C.3     
  13 C13            5.6787     5.0421    -0.0218 C.2     
  14 C14            4.3024     5.6703    -0.0878 C.3     
  15 C15            4.3192     6.7496    -1.1764 C.3     
  16 C16            5.3370     8.8004    -1.7554 C.ar    
  17 C17            5.2124    10.0722    -1.2103 C.ar    
  18 C18            5.1296    11.1724    -2.0406 C.ar    
  19 C19            5.1706    11.0093    -3.4134 C.ar    
  20 C20            5.2945     9.7450    -3.9592 C.ar    
  21 C21            5.3836     8.6407    -3.1343 C.ar    
  22 N22            5.1679    10.2476     0.2586 N.pl3   
  23 O23            5.1574    11.3672     0.7382 O.2     
  24 O24            5.1419     9.2725     0.9879 O.2     
  25 C25            5.3382     9.5721    -5.4556 C.3     
  26 C26           -1.0568     1.7460    -0.4181 C.3     
  27 H27           -0.4990    -0.8931    -0.4108 H       
  28 H28            1.7414    -1.9621    -0.3047 H       
  29 H29            3.7512    -0.5095    -0.1832 H       
  30 H30            6.8224     3.2897     0.0192 H       
  31 H31            6.8014     6.5525    -2.0240 H       
  32 H32            7.5194     7.7709    -0.9427 H       
  33 H33            7.7905     5.3992    -0.1077 H       
  34 H34            6.9060     6.4517     1.0275 H       
  35 H35            3.5625     4.9094    -0.3361 H       
  36 H36            4.0579     6.1218     0.8737 H       
  37 H37            3.3730     7.2906    -1.1667 H       
  38 H38            4.4606     6.2813    -2.1505 H       
  39 H39            5.0323    12.1613    -1.6176 H       
  40 H40            5.1052    11.8715    -4.0606 H       
  41 H41            5.4848     7.6538    -3.5611 H       
  42 H42            6.3721     9.6224    -5.7971 H       
  43 H43            4.9143     8.6039    -5.7221 H       
  44 H44            4.7599    10.3650    -5.9300 H       
  45 H45           -1.4427     1.8919     0.5908 H       
  46 H46           -0.9699     2.7112    -0.9170 H       
  47 H47           -1.7388     1.1071    -0.9791 H       
@<TRIPOS>BOND
   1    1    2 ar
   2    1    6 ar
   3    1   26 1
   4    2    3 ar
   5    2   27 1
   6    3    4 ar
   7    3   28 1
   8    4    5 ar
   9    4   29 1
  10    5    6 ar
  11    5    7 1
  12    7    8 3
  13    8    9 1
  14    9   13 2
  15    9   30 1
  16   10   11 1
  17   10   15 1
  18   10   16 1
  19   11   12 1
  20   11   31 1
  21   11   32 1
  22   12   13 1
  23   12   33 1
  24   12   34 1
  25   13   14 1
  26   14   15 1
  27   14   35 1
  28   14   36 1
  29   15   37 1
  30   15   38 1
  31   16   17 ar
  32   16   21 ar
  33   17   18 ar
  34   17   22 1
  35   18   19 ar
  36   18   39 1
  37   19   20 ar
  38   19   40 1
  39   20   21 ar
  40   20   25 1
  41   21   41 1
  42   22   23 2
  43   22   24 2
  44   25   42 1
  45   25   43 1
  46   25   44 1
  47   26   45 1
  48   26   46 1
  49   26   47 1

#	End of record

