#	Name: ASD01884417
#	Creating user name:	WinNT
#	Creation time:	15. 06. 2019 19:48

#	Modifying user name:	WinNT
#	Modification time:	15. 06. 2019 19:48

#	Program:	/corina/corina34_cracker 3.40 0067  02.08.2006

@<TRIPOS>MOLECULE
ASD01884417
  39   41    0    0    0
SMALL
NO_CHARGES


@<TRIPOS>ATOM
   1 C1            -0.0164     1.3575     0.0095 C.2     
   2 C2             0.0021    -0.0041     0.0020 C.2     
   3 C3             1.2441    -0.6751    -0.0134 C.2     
   4 C4             2.4025     0.0466    -0.0206 C.2     
   5 N5             2.3701     1.4023    -0.0130 N.am    
   6 C6             1.1987     2.0651     0.0017 C.2     
   7 C7             1.2898    -2.1582    -0.0214 C.ar    
   8 C8             3.6266     2.1554    -0.0205 C.3     
   9 O9             1.1912     3.2856     0.0083 O.2     
  10 C10            4.0445     2.4212    -1.4438 C.ar    
  11 C11            3.6208     3.5700    -2.0854 C.ar    
  12 C12            4.0040     3.8139    -3.3910 C.ar    
  13 C13            4.8114     2.9092    -4.0548 C.ar    
  14 C14            5.2358     1.7608    -3.4129 C.ar    
  15 C15            4.8561     1.5191    -2.1059 C.ar    
  16 C16            1.0111    -2.8718     1.1414 C.ar    
  17 C17            1.6068    -2.8425    -1.1957 C.ar    
  18 C18            1.6486    -4.2240    -1.1992 C.ar    
  19 C19            1.3769    -4.9300    -0.0418 C.ar    
  20 C20            1.0554    -4.2562     1.1280 C.ar    
  21 O21            0.7897    -4.9553     2.2633 O.3     
  22 C22            0.8598    -6.3801     2.1792 C.3     
  23 F23            1.8722    -2.1552    -2.3281 F       
  24 H24           -0.9563     1.8894     0.0169 H       
  25 H25           -0.9217    -0.5635     0.0082 H       
  26 H26            3.3529    -0.4663    -0.0321 H       
  27 H27            3.4855     3.1028     0.4997 H       
  28 H28            4.4004     1.5760     0.4831 H       
  29 H29            2.9901     4.2769    -1.5668 H       
  30 H30            3.6724     4.7111    -3.8925 H       
  31 H31            5.1102     3.0994    -5.0751 H       
  32 H32            5.8663     1.0539    -3.9316 H       
  33 H33            5.1877     0.6219    -1.6043 H       
  34 H34            0.7613    -2.3471     2.0517 H       
  35 H35            1.8935    -4.7533    -2.1081 H       
  36 H36            1.4107    -6.0095    -0.0492 H       
  37 H37            1.8651    -6.6774     1.8808 H       
  38 H38            0.6265    -6.8133     3.1518 H       
  39 H39            0.1414    -6.7363     1.4410 H       
@<TRIPOS>BOND
   1    1    2 2
   2    1    6 1
   3    1   24 1
   4    2    3 1
   5    2   25 1
   6    3    4 2
   7    3    7 1
   8    4    5 1
   9    4   26 1
  10    5    6 am
  11    5    8 1
  12    6    9 2
  13    7   16 ar
  14    7   17 ar
  15    8   10 1
  16    8   27 1
  17    8   28 1
  18   10   11 ar
  19   10   15 ar
  20   11   12 ar
  21   11   29 1
  22   12   13 ar
  23   12   30 1
  24   13   14 ar
  25   13   31 1
  26   14   15 ar
  27   14   32 1
  28   15   33 1
  29   16   20 ar
  30   16   34 1
  31   17   18 ar
  32   17   23 1
  33   18   19 ar
  34   18   35 1
  35   19   20 ar
  36   19   36 1
  37   20   21 1
  38   21   22 1
  39   22   37 1
  40   22   38 1
  41   22   39 1

#	End of record

