#	Name: ASD08070321
#	Creating user name:	WinNT
#	Creation time:	15. 06. 2019 21:14

#	Modifying user name:	WinNT
#	Modification time:	15. 06. 2019 21:14

#	Program:	/corina/corina34_cracker 3.40 0067  02.08.2006

@<TRIPOS>MOLECULE
ASD08070321
  52   54    0    0    0
SMALL
NO_CHARGES


@<TRIPOS>ATOM
   1 O1            -0.0174     1.4354     0.0099 O.3     
   2 C2             0.0021    -0.0041     0.0020 C.3     
   3 O3             1.2438    -0.3266    -0.6516 O.3     
   4 C4             2.0691     0.7335    -0.4082 C.ar    
   5 C5             1.2912     1.8185    -0.0005 C.ar    
   6 C6             1.8951     3.0290     0.3108 C.ar    
   7 C7             3.2633     3.1655     0.2185 C.ar    
   8 C8             4.0471     2.0840    -0.1895 C.ar    
   9 C9             3.4405     0.8645    -0.5026 C.ar    
  10 C10            5.5127     2.2285    -0.2894 C.2     
  11 O11            6.1937     1.2859    -0.6447 O.2     
  12 N12            6.0961     3.4052     0.0132 N.am    
  13 C13            7.8986     4.9980    -0.3075 C.2     
  14 C14            7.5507     3.5485    -0.0859 C.3     
  15 C15            8.2008     3.0603     1.2101 C.3     
  16 C16            7.9521     1.5593     1.3715 C.3     
  17 C17            8.6651     0.8008     0.2503 C.3     
  18 O18            7.0182     5.8294    -0.3758 O.2     
  19 C19            8.4931     1.0953     2.7254 C.3     
  20 N20            9.1881     5.3704    -0.4297 N.am    
  21 C21            9.6665     6.7434    -0.6476 C.3     
  22 C22           11.2052     6.6818    -0.7493 C.3     
  23 C23           11.4682     5.2056    -1.1482 C.3     
  24 C24           10.3529     4.4693    -0.3606 C.3     
  25 C25            9.2580     7.6299     0.5306 C.3     
  26 O26            9.9241     7.1858     1.7143 O.3     
  27 H27           -0.0068    -0.3927     1.0203 H       
  28 H28           -0.8423    -0.3953    -0.5655 H       
  29 H29            1.2907     3.8666     0.6262 H       
  30 H30            3.7294     4.1091     0.4612 H       
  31 H31            4.0434     0.0258    -0.8180 H       
  32 H32            5.5528     4.1571     0.2967 H       
  33 H33            7.9181     2.9547    -0.9229 H       
  34 H34            9.2737     3.2488     1.1719 H       
  35 H35            7.7682     3.5933     2.0568 H       
  36 H36            6.8815     1.3609     1.3207 H       
  37 H37            8.4879    -0.2686     0.3652 H       
  38 H38            8.2797     1.1313    -0.7142 H       
  39 H39            9.7357     0.9992     0.3011 H       
  40 H40            7.9851     1.6357     3.5241 H       
  41 H41            8.3159     0.0260     2.8403 H       
  42 H42            9.5637     1.2938     2.7761 H       
  43 H43            9.2493     7.1387    -1.5738 H       
  44 H44           11.5681     7.3604    -1.5211 H       
  45 H45           11.6646     6.9090     0.2127 H       
  46 H46           11.3507     5.0644    -2.2226 H       
  47 H47           12.4556     4.8819    -0.8189 H       
  48 H48           10.6542     4.3176     0.6759 H       
  49 H49           10.1225     3.5145    -0.8332 H       
  50 H50            9.5374     8.6627     0.3222 H       
  51 H51            8.1795     7.5675     0.6754 H       
  52 H52            9.7117     7.7036     2.5029 H       
@<TRIPOS>BOND
   1    1    2 1
   2    1    5 1
   3    2    3 1
   4    2   27 1
   5    2   28 1
   6    3    4 1
   7    4    5 ar
   8    4    9 ar
   9    5    6 ar
  10    6    7 ar
  11    6   29 1
  12    7    8 ar
  13    7   30 1
  14    8    9 ar
  15    8   10 1
  16    9   31 1
  17   10   11 2
  18   10   12 am
  19   12   14 1
  20   12   32 1
  21   13   14 1
  22   13   18 2
  23   13   20 am
  24   14   15 1
  25   14   33 1
  26   15   16 1
  27   15   34 1
  28   15   35 1
  29   16   17 1
  30   16   19 1
  31   16   36 1
  32   17   37 1
  33   17   38 1
  34   17   39 1
  35   19   40 1
  36   19   41 1
  37   19   42 1
  38   20   21 1
  39   20   24 1
  40   21   22 1
  41   21   25 1
  42   21   43 1
  43   22   23 1
  44   22   44 1
  45   22   45 1
  46   23   24 1
  47   23   46 1
  48   23   47 1
  49   24   48 1
  50   24   49 1
  51   25   26 1
  52   25   50 1
  53   25   51 1
  54   26   52 1

#	End of record

