#	Name: ASD02038781
#	Creating user name:	WinNT
#	Creation time:	15. 06. 2019 20:17

#	Modifying user name:	WinNT
#	Modification time:	15. 06. 2019 20:17

#	Program:	/corina/corina34_cracker 3.40 0067  02.08.2006

@<TRIPOS>MOLECULE
ASD02038781
  43   45    0    0    0
SMALL
NO_CHARGES


@<TRIPOS>ATOM
   1 C1            -1.2778    -0.8478     0.4642 C.2     
   2 C2            -0.0605    -0.0342     0.3010 C.2     
   3 N3             1.1369    -0.6350     0.1536 N.am    
   4 C4             1.2419    -2.0930     0.2511 C.3     
   5 C5             1.2142    -2.6922    -1.1313 C.ar    
   6 C6             2.3336     0.1699    -0.1041 C.3     
   7 O7            -0.1361     1.1797     0.2993 O.2     
   8 N8            -1.3385    -2.2037     0.4952 N.2     
   9 C9            -2.5788    -2.5659     0.6533 C.2     
  10 N10           -3.3577    -1.4555     0.7293 N.pl3   
  11 C11           -2.5486    -0.3759     0.6175 C.2     
  12 C12            2.3979    -3.0145    -1.7686 C.ar    
  13 C13            2.1216     1.0141    -1.3646 C.3     
  14 C14            3.3445     1.9091    -1.5815 C.3     
  15 O15            3.5446     2.7279    -0.4275 O.3     
  16 C16            3.7947     1.9937     0.7726 C.3     
  17 C17            2.5899     1.1020     1.0841 C.3     
  18 C18           -4.8117    -1.4307     0.9068 C.3     
  19 C19            0.0051    -2.9246    -1.7597 C.ar    
  20 C20           -0.0206    -3.4746    -3.0276 C.ar    
  21 C21            1.1635    -3.7919    -3.6676 C.ar    
  22 C22            2.3729    -3.5641    -3.0366 C.ar    
  23 I23            1.1251    -4.6255    -5.5892 I       
  24 H24            2.1777    -2.3578     0.7433 H       
  25 H25            0.4041    -2.4795     0.8315 H       
  26 H26            3.1916    -0.4873    -0.2454 H       
  27 H27           -2.9317    -3.5849     0.7138 H       
  28 H28           -2.8519     0.6604     0.6382 H       
  29 H29            3.3423    -2.8365    -1.2758 H       
  30 H30            1.9934     0.3576    -2.2253 H       
  31 H31            1.2335     1.6341    -1.2427 H       
  32 H32            4.2255     1.2880    -1.7436 H       
  33 H33            3.1811     2.5430    -2.4531 H       
  34 H34            4.6815     1.3736     0.6413 H       
  35 H35            3.9555     2.6884     1.5970 H       
  36 H36            1.7112     1.7238     1.2555 H       
  37 H37            2.7965     0.5085     1.9747 H       
  38 H38           -5.0475    -1.4063     1.9707 H       
  39 H39           -5.2217    -0.5439     0.4234 H       
  40 H40           -5.2478    -2.3233     0.4583 H       
  41 H41           -0.9197    -2.6768    -1.2599 H       
  42 H42           -0.9653    -3.6569    -3.5182 H       
  43 H43            3.2978    -3.8118    -3.5362 H       
@<TRIPOS>BOND
   1    1    2 1
   2    1    8 1
   3    1   11 2
   4    2    3 am
   5    2    7 2
   6    3    4 1
   7    3    6 1
   8    4    5 1
   9    4   24 1
  10    4   25 1
  11    5   12 ar
  12    5   19 ar
  13    6   13 1
  14    6   17 1
  15    6   26 1
  16    8    9 2
  17    9   10 1
  18    9   27 1
  19   10   11 1
  20   10   18 1
  21   11   28 1
  22   12   22 ar
  23   12   29 1
  24   13   14 1
  25   13   30 1
  26   13   31 1
  27   14   15 1
  28   14   32 1
  29   14   33 1
  30   15   16 1
  31   16   17 1
  32   16   34 1
  33   16   35 1
  34   17   36 1
  35   17   37 1
  36   18   38 1
  37   18   39 1
  38   18   40 1
  39   19   20 ar
  40   19   41 1
  41   20   21 ar
  42   20   42 1
  43   21   22 ar
  44   21   23 1
  45   22   43 1

#	End of record

