#	Name: ASD04910368
#	Creating user name:	WinNT
#	Creation time:	15. 06. 2019 20:55

#	Modifying user name:	WinNT
#	Modification time:	15. 06. 2019 20:55

#	Program:	/corina/corina34_cracker 3.40 0067  02.08.2006

@<TRIPOS>MOLECULE
ASD04910368
  54   56    0    0    0
SMALL
NO_CHARGES


@<TRIPOS>ATOM
   1 C1            -1.5785    -0.3223    -3.2990 C.2     
   2 C2            -1.5790    -1.1877    -2.1017 C.ar    
   3 C3            -2.7735    -1.7422    -1.6377 C.ar    
   4 C4            -2.7666    -2.5498    -0.5194 C.ar    
   5 C5            -1.5798    -2.8104     0.1424 C.ar    
   6 C6            -0.3926    -2.2638    -0.3118 C.ar    
   7 C7            -0.3841    -1.4595    -1.4324 C.ar    
   8 O8            -2.6188    -0.0916    -3.8821 O.2     
   9 O9            -0.4252     0.2156    -3.7408 O.3     
  10 C10           -1.5803    -3.6933     1.3637 C.3     
  11 C11           -1.6674    -2.8251     2.6205 C.3     
  12 C12           -1.7935    -3.7231     3.8529 C.3     
  13 C13           -1.8806    -2.8549     5.1097 C.3     
  14 O14           -0.3752    -4.4605     1.3973 O.3     
  15 C15           -0.4810    -5.7593     1.7844 C.ar    
  16 C16           -1.6966    -6.2509     2.2379 C.ar    
  17 C17           -1.8047    -7.5701     2.6308 C.ar    
  18 C18           -0.6968    -8.4047     2.5720 C.ar    
  19 C19            0.5193    -7.9123     2.1181 C.ar    
  20 C20            0.6251    -6.5944     1.7205 C.ar    
  21 N21           -0.8061    -9.7451     2.9715 N.pl3   
  22 N22           -1.2896   -10.2010     4.2046 N.2     
  23 C23           -1.2382   -11.5090     4.2061 C.2     
  24 C24           -0.7210   -11.9282     2.9757 C.2     
  25 C25           -0.4688   -10.8257     2.2323 C.2     
  26 C26           -0.4914   -13.3556     2.5506 C.3     
  27 F27           -0.8776   -14.2175     3.5827 F       
  28 F28           -1.2488   -13.6292     1.4066 F       
  29 F29            0.8656   -13.5454     2.2678 F       
  30 C30            1.7223    -8.8177     2.0539 C.3     
  31 C31           -3.1250    -8.1038     3.1238 C.3     
  32 H32           -3.7006    -1.5390    -2.1529 H       
  33 H33           -3.6898    -2.9793    -0.1594 H       
  34 H34            0.5302    -2.4707     0.2099 H       
  35 H35            0.5440    -1.0374    -1.7887 H       
  36 H36           -0.4749     0.7751    -4.5279 H       
  37 H37           -2.4378    -4.3651     1.3260 H       
  38 H38           -0.7670    -2.2166     2.7049 H       
  39 H39           -2.5400    -2.1754     2.5536 H       
  40 H40           -2.6939    -4.3315     3.7685 H       
  41 H41           -0.9208    -4.3728     3.9199 H       
  42 H42           -0.9802    -2.2464     5.1941 H       
  43 H43           -2.7532    -2.2052     5.0427 H       
  44 H44           -1.9704    -3.4946     5.9877 H       
  45 H45           -2.5583    -5.6015     2.2840 H       
  46 H46            1.5700    -6.2124     1.3632 H       
  47 H47           -1.5423   -12.1535     5.0175 H       
  48 H48           -0.0675   -10.8115     1.2297 H       
  49 H49            1.7165    -9.3633     1.1103 H       
  50 H50            2.6311    -8.2198     2.1224 H       
  51 H51            1.6894    -9.5250     2.8827 H       
  52 H52           -3.6524    -8.5855     2.3005 H       
  53 H53           -2.9497    -8.8301     3.9175 H       
  54 H54           -3.7277    -7.2818     3.5101 H       
@<TRIPOS>BOND
   1    1    2 1
   2    1    8 2
   3    1    9 1
   4    2    3 ar
   5    2    7 ar
   6    3    4 ar
   7    3   32 1
   8    4    5 ar
   9    4   33 1
  10    5    6 ar
  11    5   10 1
  12    6    7 ar
  13    6   34 1
  14    7   35 1
  15    9   36 1
  16   10   11 1
  17   10   14 1
  18   10   37 1
  19   11   12 1
  20   11   38 1
  21   11   39 1
  22   12   13 1
  23   12   40 1
  24   12   41 1
  25   13   42 1
  26   13   43 1
  27   13   44 1
  28   14   15 1
  29   15   16 ar
  30   15   20 ar
  31   16   17 ar
  32   16   45 1
  33   17   18 ar
  34   17   31 1
  35   18   19 ar
  36   18   21 1
  37   19   20 ar
  38   19   30 1
  39   20   46 1
  40   21   22 1
  41   21   25 1
  42   22   23 2
  43   23   24 1
  44   23   47 1
  45   24   25 2
  46   24   26 1
  47   25   48 1
  48   26   27 1
  49   26   28 1
  50   26   29 1
  51   30   49 1
  52   30   50 1
  53   30   51 1
  54   31   52 1
  55   31   53 1
  56   31   54 1

#	End of record

