#	Name: ASD01120361
#	Creating user name:	WinNT
#	Creation time:	15. 06. 2019 18:59

#	Modifying user name:	WinNT
#	Modification time:	15. 06. 2019 18:59

#	Program:	/corina/corina34_cracker 3.40 0067  02.08.2006

@<TRIPOS>MOLECULE
ASD01120361
  40   42    0    0    0
SMALL
NO_CHARGES


@<TRIPOS>ATOM
   1 C1            -0.0318     1.3612    -0.5232 C.ar    
   2 C2            -0.0092    -0.0220    -0.4418 C.ar    
   3 C3             1.1828    -0.7024    -0.3158 C.ar    
   4 C4             2.3863    -0.0045    -0.2688 C.ar    
   5 C5             2.3789     1.4010    -0.3508 C.ar    
   6 C6             1.1511     2.0849    -0.4792 C.ar    
   7 N7             3.6975    -0.4021    -0.1504 N.pl3   
   8 C8             4.5040     0.7201    -0.1569 C.2     
   9 C9             3.7230     1.8279    -0.2778 C.2     
  10 C10            4.2060     3.2546    -0.3259 C.3     
  11 C11            4.3285     3.7027    -1.7836 C.3     
  12 C12            4.8114     5.1294    -1.8317 C.2     
  13 O13            4.9935     5.7369    -3.0147 O.3     
  14 O14            5.0348     5.7265    -0.8053 O.2     
  15 C15            5.9684     0.7175    -0.0503 C.2     
  16 O16            6.5809     1.7677    -0.0662 O.2     
  17 O17            6.6340    -0.4496     0.0652 O.3     
  18 C18            1.1257     3.5632    -0.5672 C.ar    
  19 C19            0.6037     4.1878    -1.6999 C.ar    
  20 C20            0.5818     5.5648    -1.7770 C.ar    
  21 C21            1.0771     6.3276    -0.7314 C.ar    
  22 C22            1.5971     5.7117     0.3959 C.ar    
  23 C23            1.6182     4.3354     0.4848 C.ar    
  24 F24            1.0535     7.6760    -0.8115 F       
  25 N25            1.1832    -2.1802    -0.2296 N.pl3   
  26 O26            0.1313    -2.7929    -0.2701 O.2     
  27 O27            2.2354    -2.7835    -0.1181 O.2     
  28 H28           -0.9745     1.8781    -0.6258 H       
  29 H29           -0.9371    -0.5736    -0.4773 H       
  30 H30            4.0054    -1.3188    -0.0744 H       
  31 H31            3.4943     3.8968     0.1931 H       
  32 H32            5.1797     3.3251     0.1589 H       
  33 H33            5.0401     3.0606    -2.3026 H       
  34 H34            3.3548     3.6323    -2.2685 H       
  35 H35            5.3045     6.6523    -2.9950 H       
  36 H36            7.5975    -0.4008     0.1324 H       
  37 H37            0.2178     3.5942    -2.5155 H       
  38 H38            0.1782     6.0494    -2.6538 H       
  39 H39            1.9823     6.3104     1.2080 H       
  40 H40            2.0233     3.8563     1.3639 H       
@<TRIPOS>BOND
   1    1    2 ar
   2    1    6 ar
   3    1   28 1
   4    2    3 ar
   5    2   29 1
   6    3   25 1
   7    3    4 ar
   8    4    5 ar
   9    4    7 1
  10    5    6 ar
  11    5    9 1
  12    6   18 1
  13    7    8 1
  14    7   30 1
  15    8    9 2
  16    8   15 1
  17    9   10 1
  18   10   11 1
  19   10   31 1
  20   10   32 1
  21   11   12 1
  22   11   33 1
  23   11   34 1
  24   12   13 1
  25   12   14 2
  26   13   35 1
  27   15   16 2
  28   15   17 1
  29   17   36 1
  30   18   19 ar
  31   18   23 ar
  32   19   20 ar
  33   19   37 1
  34   20   21 ar
  35   20   38 1
  36   21   22 ar
  37   21   24 1
  38   22   23 ar
  39   22   39 1
  40   23   40 1
  41   25   26 2
  42   25   27 2

#	End of record

