#	Name: ASD01881870
#	Creating user name:	WinNT
#	Creation time:	15. 06. 2019 19:43

#	Modifying user name:	WinNT
#	Modification time:	15. 06. 2019 19:43

#	Program:	/corina/corina34_cracker 3.40 0067  02.08.2006

@<TRIPOS>MOLECULE
ASD01881870
  41   44    0    0    0
SMALL
NO_CHARGES


@<TRIPOS>ATOM
   1 N1            -0.0161     1.3346     0.0094 N.am    
   2 C2             0.0021    -0.0041     0.0020 C.2     
   3 C3             1.4375    -0.4824    -0.0143 C.3     
   4 C4             2.2545     0.8258    -0.0150 C.3     
   5 C5             1.1947     1.9057     0.0009 C.2     
   6 O6            -0.9765    -0.7196     0.0079 O.2     
   7 O7             1.4082     3.0991     0.0046 O.2     
   8 C8            -1.2587     2.1105     0.0196 C.3     
   9 C9            -1.6842     2.3728     1.4657 C.3     
  10 O10           -0.7137     3.2048     2.1044 O.3     
  11 N11           -1.4009     4.6807     7.3344 N.pl3   
  12 N12           -0.2271     5.4422     7.4356 N.2     
  13 N13            0.3967     5.4186     6.3109 N.2     
  14 C14           -0.2812     4.6742     5.4146 C.ar    
  15 C15           -1.4384     4.1903     6.0490 C.ar    
  16 C16           -0.0425     4.3358     4.0755 C.ar    
  17 C17           -0.9428     3.5351     3.4035 C.ar    
  18 C18           -2.0849     3.0630     4.0458 C.ar    
  19 C19           -2.3315     3.3858     5.3504 C.ar    
  20 C20           -2.3888     4.4481     8.3908 C.3     
  21 C21           -3.4585     5.5407     8.3383 C.3     
  22 C22           -4.6492     5.4100     9.2902 C.3     
  23 C23           -3.5776     6.4714     9.5468 C.3     
  24 Br24           1.5054     4.9723     3.1952 Br      
  25 H25            1.6560    -1.0705     0.8770 H       
  26 H26            1.6389    -1.0609    -0.9158 H       
  27 H27            2.8793     0.8884     0.8759 H       
  28 H28            2.8622     0.8980    -0.9170 H       
  29 H29           -1.0979     3.0606    -0.4898 H       
  30 H30           -2.0407     1.5509    -0.4934 H       
  31 H31           -2.6530     2.8722     1.4744 H       
  32 H32           -1.7589     1.4257     1.9999 H       
  33 H33           -2.7818     2.4373     3.5080 H       
  34 H34           -3.2201     3.0150     5.8395 H       
  35 H35           -2.8563     3.4745     8.2431 H       
  36 H36           -1.8943     4.4701     9.3620 H       
  37 H37           -3.6462     5.9679     7.3533 H       
  38 H38           -5.6202     5.7515     8.9315 H       
  39 H39           -4.6705     4.5455     9.9538 H       
  40 H40           -2.8939     6.3053    10.3793 H       
  41 H41           -3.8436     7.5113     9.3570 H       
@<TRIPOS>BOND
   1    1    2 am
   2    1    5 am
   3    1    8 1
   4    2    3 1
   5    2    6 2
   6    3    4 1
   7    3   25 1
   8    3   26 1
   9    4    5 1
  10    4   27 1
  11    4   28 1
  12    5    7 2
  13    8    9 1
  14    8   29 1
  15    8   30 1
  16    9   10 1
  17    9   31 1
  18    9   32 1
  19   10   17 1
  20   11   12 1
  21   11   15 1
  22   11   20 1
  23   12   13 2
  24   13   14 1
  25   14   15 ar
  26   14   16 ar
  27   15   19 ar
  28   16   17 ar
  29   16   24 1
  30   17   18 ar
  31   18   19 ar
  32   18   33 1
  33   19   34 1
  34   20   21 1
  35   20   35 1
  36   20   36 1
  37   21   22 1
  38   21   23 1
  39   21   37 1
  40   22   23 1
  41   22   38 1
  42   22   39 1
  43   23   40 1
  44   23   41 1

#	End of record

