#	Name: ASD01884959
#	Creating user name:	WinNT
#	Creation time:	15. 06. 2019 19:49

#	Modifying user name:	WinNT
#	Modification time:	15. 06. 2019 19:49

#	Program:	/corina/corina34_cracker 3.40 0067  02.08.2006

@<TRIPOS>MOLECULE
ASD01884959
  50   53    0    0    0
SMALL
NO_CHARGES


@<TRIPOS>ATOM
   1 C1             0.0202     1.4018     0.1566 C.ar    
   2 C2             0.0682     0.0226     0.1544 C.ar    
   3 C3            -1.1098    -0.7142     0.0252 C.ar    
   4 C4            -2.3317    -0.0538    -0.1015 C.ar    
   5 C5            -2.3732     1.3249    -0.0987 C.ar    
   6 C6            -1.2013     2.0562     0.0357 C.ar    
   7 C7            -1.0626    -2.1947     0.0220 C.2     
   8 C8            -1.6557    -2.9127     1.0422 C.2     
   9 C9            -0.4134    -2.8869    -1.0313 C.2     
  10 C10           -0.3712    -4.2311    -1.0349 C.2     
  11 N11           -0.9505    -4.9524    -0.0272 N.pl3   
  12 C12           -1.5953    -4.3173     1.0124 C.2     
  13 C13           -1.0621    -6.2866     0.2275 C.2     
  14 N14           -1.7276    -6.4177     1.3505 N.2     
  15 N15           -2.0460    -5.2626     1.8190 N.2     
  16 O16           -0.5751    -7.2944    -0.5400 O.3     
  17 O17           -1.2462     3.4144     0.0381 O.3     
  18 C18           -1.0510     4.0612    -1.1409 C.ar    
  19 F19            1.1597     2.1168     0.2816 F       
  20 C20           -0.7394     3.3477    -2.2940 C.ar    
  21 C21           -0.5499     4.0514    -3.4726 C.ar    
  22 C22           -0.6755     5.4278    -3.4645 C.ar    
  23 N23           -0.9719     6.0742    -2.3539 N.ar    
  24 C24           -1.1652     5.4424    -1.2134 C.ar    
  25 C25           -0.8072    -8.6283    -0.0829 C.3     
  26 C26           -0.1896    -9.6205    -1.0704 C.3     
  27 C27           -0.4704     6.2004    -4.7421 C.3     
  28 C28           -1.5023     6.2289     0.0271 C.3     
  29 C29           -2.3566    -2.2013     2.1708 C.3     
  30 F30           -3.7245    -2.1160     1.8901 F       
  31 F31           -2.1681    -2.9139     3.3598 F       
  32 F32           -1.8279    -0.9136     2.3100 F       
  33 H33            1.0160    -0.4857     0.2523 H       
  34 H34           -3.2449    -0.6216    -0.2020 H       
  35 H35           -3.3195     1.8360    -0.1971 H       
  36 H36            0.0490    -2.3324    -1.8345 H       
  37 H37            0.1257    -4.7473    -1.8431 H       
  38 H38           -0.6472     2.2719    -2.2710 H       
  39 H39           -0.3066     3.5304    -4.3868 H       
  40 H40           -0.3512    -8.7607     0.8982 H       
  41 H41           -1.8802    -8.8065    -0.0119 H       
  42 H42           -0.6456    -9.4881    -2.0516 H       
  43 H43            0.8834    -9.4422    -1.1414 H       
  44 H44           -0.3667   -10.6379    -0.7218 H       
  45 H45           -1.4219     6.2966    -5.2652 H       
  46 H46           -0.0822     7.1918    -4.5087 H       
  47 H47            0.2410     5.6716    -5.3763 H       
  48 H48           -2.5843     6.3323     0.1088 H       
  49 H49           -1.1200     5.7061     0.9038 H       
  50 H50           -1.0464     7.2171    -0.0342 H       
@<TRIPOS>BOND
   1    1    2 ar
   2    1   19 1
   3    1    6 ar
   4    2    3 ar
   5    2   33 1
   6    3    4 ar
   7    3    7 1
   8    4    5 ar
   9    4   34 1
  10    5    6 ar
  11    5   35 1
  12    6   17 1
  13    7    8 2
  14    7    9 1
  15    8   29 1
  16    8   12 1
  17    9   10 2
  18    9   36 1
  19   10   11 1
  20   10   37 1
  21   11   12 1
  22   11   13 1
  23   12   15 2
  24   13   14 2
  25   13   16 1
  26   14   15 1
  27   16   25 1
  28   17   18 1
  29   18   20 ar
  30   18   24 ar
  31   20   21 ar
  32   20   38 1
  33   21   22 ar
  34   21   39 1
  35   22   23 ar
  36   22   27 1
  37   23   24 ar
  38   24   28 1
  39   25   26 1
  40   25   40 1
  41   25   41 1
  42   26   42 1
  43   26   43 1
  44   26   44 1
  45   27   45 1
  46   27   46 1
  47   27   47 1
  48   28   48 1
  49   28   49 1
  50   28   50 1
  51   29   30 1
  52   29   31 1
  53   29   32 1

#	End of record

