#	Name: ASD01410717
#	Creating user name:	WinNT
#	Creation time:	15. 06. 2019 19:18

#	Modifying user name:	WinNT
#	Modification time:	15. 06. 2019 19:18

#	Program:	/corina/corina34_cracker 3.40 0067  02.08.2006

@<TRIPOS>MOLECULE
ASD01410717
  77   82    0    0    0
SMALL
NO_CHARGES


@<TRIPOS>ATOM
   1 N1            -0.3089     1.9883     0.0104 N.am    
   2 C2            -2.6126     4.6398    -1.2409 C.3     
   3 S3            -0.3478     0.3105     0.1039 S.o2    
   4 O4            -0.8130    -0.1579    -1.1544 O.2     
   5 N5             1.2514    -0.1612     0.2307 N.am    
   6 O6            -0.9699    -0.0153     1.3392 O.2     
   7 C7             2.0570     0.1699    -0.7811 C.2     
   8 O8             2.4229    -0.7998    -1.4170 O.2     
   9 C9             2.5965     1.4012    -1.3005 C.ar    
  10 C10            3.8395     1.8604    -0.8295 C.ar    
  11 C11            4.3392     3.0862    -1.1597 C.ar    
  12 C12            3.5517     3.8892    -1.9983 C.ar    
  13 C13            2.3871     3.3765    -2.6336 C.ar    
  14 C14            1.8955     2.1254    -2.2922 C.ar    
  15 C15            3.6316     5.2456    -2.3374 C.2     
  16 C16            2.5916     5.5269    -3.1743 C.2     
  17 N17            1.9505     4.3489    -3.4991 N.pl3   
  18 C18            4.6785     6.2200    -1.8624 C.3     
  19 C19            4.0243     7.2764    -0.9696 C.3     
  20 C20            5.7486     5.4709    -1.0659 C.3     
  21 C21            6.8115     6.4602    -0.5837 C.3     
  22 C22            6.1573     7.5165     0.3091 C.3     
  23 C23            5.0872     8.2657    -0.4874 C.3     
  24 C24            2.2113     6.8841    -3.6058 C.ar    
  25 C25            0.9511     7.2336    -4.1021 C.ar    
  26 C26           -0.1765     6.3291    -4.2592 C.2     
  27 C27           -0.1975     5.0313    -4.4824 C.2     
  28 C28            1.0317     4.1820    -4.6260 C.3     
  29 C29            3.2053     7.8690    -3.4585 C.ar    
  30 C30            2.9681     9.1677    -3.8202 C.ar    
  31 C31            1.7278     9.5264    -4.3291 C.ar    
  32 C32            0.7351     8.5798    -4.4780 C.ar    
  33 C33           -2.0836     5.3518    -2.4984 C.3     
  34 C34           -1.4480     4.1361    -0.3864 C.3     
  35 C35           -1.6394     2.6511    -0.0882 C.3     
  36 C36            0.9448     2.7459     0.0307 C.3     
  37 N37           -2.4627     4.5612    -3.6934 N.am    
  38 C38           -1.4737     4.3353    -4.5949 C.2     
  39 O39           -1.6536     3.5464    -5.5041 O.2     
  40 O40            1.4897    10.8166    -4.6821 O.3     
  41 C41            2.5597    11.7465    -4.5021 C.3     
  42 H42           -3.2157     5.3374    -0.6597 H       
  43 H43           -3.2310     3.7936    -1.5402 H       
  44 H44            1.5778    -0.6510     1.0017 H       
  45 H45            4.4196     1.2193    -0.1823 H       
  46 H46            5.2971     3.4231    -0.7919 H       
  47 H47            1.0132     1.7203    -2.7653 H       
  48 H48            5.1393     6.7060    -2.7224 H       
  49 H49            3.2619     7.8101    -1.5370 H       
  50 H50            3.5635     6.7904    -0.1096 H       
  51 H51            5.2878     4.9849    -0.2060 H       
  52 H52            6.2147     4.7183    -1.7020 H       
  53 H53            7.5739     5.9264    -0.0163 H       
  54 H54            7.2723     6.9462    -1.4437 H       
  55 H55            5.6965     7.0305     1.1691 H       
  56 H56            6.9145     8.2213     0.6526 H       
  57 H57            5.5480     8.7517    -1.3473 H       
  58 H58            4.6211     9.0182     0.1487 H       
  59 H59           -1.1482     6.7938    -4.1801 H       
  60 H60            1.5467     4.4572    -5.5465 H       
  61 H61            0.7337     3.1354    -4.6881 H       
  62 H62            4.1691     7.5965    -3.0545 H       
  63 H63            3.7438     9.9110    -3.7097 H       
  64 H64           -0.2206     8.8710    -4.8883 H       
  65 H65           -2.5200     6.3484    -2.5652 H       
  66 H66           -0.9975     5.4284    -2.4457 H       
  67 H67           -0.5122     4.2804    -0.9264 H       
  68 H68           -1.4167     4.6934     0.5498 H       
  69 H69           -2.2159     2.1908    -0.8907 H       
  70 H70           -2.1734     2.5358     0.8549 H       
  71 H71            1.7766     2.0670     0.2190 H       
  72 H72            1.0878     3.2377    -0.9314 H       
  73 H73            0.9029     3.4967     0.8198 H       
  74 H74           -3.3639     4.2274    -3.8243 H       
  75 H75            2.2375    12.7375    -4.8219 H       
  76 H76            2.8406    11.7779    -3.4494 H       
  77 H77            3.4172    11.4334    -5.0978 H       
@<TRIPOS>BOND
   1    1    3 am
   2    1   36 1
   3    1   35 1
   4    2   33 1
   5    2   34 1
   6    2   42 1
   7    2   43 1
   8    3    4 2
   9    3    5 am
  10    3    6 2
  11    5    7 am
  12    5   44 1
  13    7    8 2
  14    7    9 1
  15    9   10 ar
  16    9   14 ar
  17   10   11 ar
  18   10   45 1
  19   11   12 ar
  20   11   46 1
  21   12   13 ar
  22   12   15 1
  23   13   14 ar
  24   13   17 1
  25   14   47 1
  26   15   16 2
  27   15   18 1
  28   16   17 1
  29   16   24 1
  30   17   28 1
  31   18   19 1
  32   18   20 1
  33   18   48 1
  34   19   23 1
  35   19   49 1
  36   19   50 1
  37   20   21 1
  38   20   51 1
  39   20   52 1
  40   21   22 1
  41   21   53 1
  42   21   54 1
  43   22   23 1
  44   22   55 1
  45   22   56 1
  46   23   57 1
  47   23   58 1
  48   24   25 ar
  49   24   29 ar
  50   25   26 1
  51   25   32 ar
  52   26   27 2
  53   26   59 1
  54   27   28 1
  55   27   38 1
  56   28   60 1
  57   28   61 1
  58   29   30 ar
  59   29   62 1
  60   30   31 ar
  61   30   63 1
  62   31   32 ar
  63   31   40 1
  64   32   64 1
  65   33   37 1
  66   33   65 1
  67   33   66 1
  68   34   35 1
  69   34   67 1
  70   34   68 1
  71   35   69 1
  72   35   70 1
  73   36   71 1
  74   36   72 1
  75   36   73 1
  76   37   38 am
  77   37   74 1
  78   38   39 2
  79   40   41 1
  80   41   75 1
  81   41   76 1
  82   41   77 1

#	End of record

