#	Name: ASD01000137
#	Creating user name:	WinNT
#	Creation time:	15. 06. 2019 18:54

#	Modifying user name:	WinNT
#	Modification time:	15. 06. 2019 18:54

#	Program:	/corina/corina34_cracker 3.40 0067  02.08.2006

@<TRIPOS>MOLECULE
ASD01000137
  56   59    0    0    0
SMALL
NO_CHARGES


@<TRIPOS>ATOM
   1 C1             0.4096     1.6719    -0.2476 C.ar    
   2 N2            -0.4503    -5.8417     1.4757 N.am    
   3 C3             0.4507     0.2944    -0.1169 C.ar    
   4 N4            -1.3893    -9.7252     2.8134 N.3     
   5 O5             0.0697    -4.4641     3.1386 O.2     
   6 C6             1.6476    -0.3379     0.1620 C.ar    
   7 C7             2.8053     0.4063     0.3106 C.ar    
   8 C8             2.7642     1.7843     0.1798 C.ar    
   9 C9             1.5677     2.4163    -0.0990 C.ar    
  10 C10            0.0120    -4.6642     1.9407 C.2     
  11 C11            0.0291    -9.3456     2.8370 C.3     
  12 C12            1.6923    -1.8374     0.3048 C.3     
  13 C13            0.7428    -2.3164     1.4312 C.3     
  14 C14           -2.0834    -7.4125     2.4008 C.3     
  15 N15            0.4102    -3.7085     1.0779 N.am    
  16 C16            0.5858    -3.8819    -0.3715 C.3     
  17 C17            1.0770    -2.5331    -0.9381 C.3     
  18 C18            0.2525    -8.1446     1.9152 C.3     
  19 C19           -2.2391    -8.6347     3.3085 C.3     
  20 C20            1.6107    -4.9538    -0.6390 C.ar    
  21 C21            1.5994    -5.6364    -1.8411 C.ar    
  22 C22            2.5394    -6.6197    -2.0865 C.ar    
  23 C23            3.4911    -6.9202    -1.1300 C.ar    
  24 C24            3.5030    -6.2371     0.0717 C.ar    
  25 C25            2.5656    -5.2507     0.3154 C.ar    
  26 C26           -0.7872    -5.9878     0.0575 C.3     
  27 C27           -0.6159    -6.9756     2.3885 C.3     
  28 F28            3.9753    -0.2116     0.5836 F       
  29 F29           -0.7594     2.2894    -0.5258 F       
  30 H30           -0.4526    -0.2862    -0.2324 H       
  31 H31           -1.6715   -10.0119     1.8881 H       
  32 H32            3.6674     2.3649     0.2960 H       
  33 H33            1.5356     3.4910    -0.2009 H       
  34 H34            0.3174    -9.0811     3.8544 H       
  35 H35            0.6352   -10.1841     2.4942 H       
  36 H36            2.7117    -2.1808     0.4808 H       
  37 H37            1.2497    -2.2806     2.3955 H       
  38 H38           -0.1591    -1.7047     1.4528 H       
  39 H39           -2.3953    -7.6690     1.3884 H       
  40 H40           -2.7023    -6.5982     2.7776 H       
  41 H41           -0.3651    -4.1525    -0.8304 H       
  42 H42            0.2421    -1.9528    -1.3309 H       
  43 H43            1.8341    -2.6902    -1.7063 H       
  44 H44            1.3024    -7.8533     1.9450 H       
  45 H45           -0.0226    -8.4126     0.8951 H       
  46 H46           -3.2803    -8.9570     3.3083 H       
  47 H47           -1.9401    -8.3736     4.3237 H       
  48 H48            0.8558    -5.4016    -2.5884 H       
  49 H49            2.5301    -7.1534    -3.0253 H       
  50 H50            4.2251    -7.6890    -1.3214 H       
  51 H51            4.2463    -6.4721     0.8191 H       
  52 H52            2.5772    -4.7144     1.2527 H       
  53 H53            0.1171    -6.2078    -0.5100 H       
  54 H54           -1.5001    -6.8033    -0.0645 H       
  55 H55           -1.2292    -5.0610    -0.3083 H       
  56 H56           -0.3151    -6.6808     3.3938 H       
@<TRIPOS>BOND
   1    1    3 ar
   2    1    9 ar
   3    1   29 1
   4    2   10 am
   5    2   26 1
   6    2   27 1
   7    3    6 ar
   8    3   30 1
   9    4   11 1
  10    4   19 1
  11    4   31 1
  12    5   10 2
  13    6    7 ar
  14    6   12 1
  15    7    8 ar
  16    7   28 1
  17    8    9 ar
  18    8   32 1
  19    9   33 1
  20   10   15 am
  21   11   18 1
  22   11   34 1
  23   11   35 1
  24   12   13 1
  25   12   17 1
  26   12   36 1
  27   13   15 1
  28   13   37 1
  29   13   38 1
  30   14   19 1
  31   14   27 1
  32   14   39 1
  33   14   40 1
  34   15   16 1
  35   16   17 1
  36   16   20 1
  37   16   41 1
  38   17   42 1
  39   17   43 1
  40   18   27 1
  41   18   44 1
  42   18   45 1
  43   19   46 1
  44   19   47 1
  45   20   21 ar
  46   20   25 ar
  47   21   22 ar
  48   21   48 1
  49   22   23 ar
  50   22   49 1
  51   23   24 ar
  52   23   50 1
  53   24   25 ar
  54   24   51 1
  55   25   52 1
  56   26   53 1
  57   26   54 1
  58   26   55 1
  59   27   56 1

#	End of record

