#	Name: ASD01915612
#	Creating user name:	WinNT
#	Creation time:	15. 06. 2019 20:05

#	Modifying user name:	WinNT
#	Modification time:	15. 06. 2019 20:05

#	Program:	/corina/corina34_cracker 3.40 0067  02.08.2006

@<TRIPOS>MOLECULE
ASD01915612
  43   46    0    0    0
SMALL
NO_CHARGES


@<TRIPOS>ATOM
   1 C1            -0.0166     1.3727     0.0096 C.2     
   2 N2             0.0021    -0.0041     0.0020 N.pl3   
   3 C3            -1.2434    -0.7807    -0.0179 C.3     
   4 C4            -2.3411     0.0067     0.6954 C.3     
   5 N5            -2.4045     1.3987     0.2637 N.am    
   6 C6            -1.2814     2.1228     0.0393 C.2     
   7 C7             1.2844     1.7904    -0.0006 C.2     
   8 C8             2.0436     0.6124    -0.0024 C.2     
   9 N9             1.2133    -0.4043     0.0045 N.2     
  10 C10            3.5482     0.5278    -0.0111 C.3     
  11 O11            4.0995     1.8462    -0.0174 O.3     
  12 C12            5.4546     1.9483    -0.0257 C.ar    
  13 O13           -1.3171     3.3273    -0.1277 O.2     
  14 C14            6.0572     3.1979    -0.0322 C.ar    
  15 C15            6.2377     0.8031    -0.0220 C.ar    
  16 C16            7.6150     0.9096    -0.0305 C.ar    
  17 C17            8.2131     2.1562    -0.0427 C.ar    
  18 C18            7.4349     3.2990    -0.0407 C.ar    
  19 C19           -3.6553     2.0008     0.0769 C.ar    
  20 C20           -4.2917     2.6598     1.1193 C.ar    
  21 N21           -5.4742     3.2172     0.9027 N.ar    
  22 C22           -6.0482     3.1535    -0.2811 C.ar    
  23 N23           -5.4809     2.5378    -1.2998 N.ar    
  24 C24           -4.2945     1.9589    -1.1683 C.ar    
  25 O25           -3.7157     1.3271    -2.2191 O.3     
  26 C26           -4.4401     1.3198    -3.4508 C.3     
  27 H27           -1.5404    -0.9655    -1.0502 H       
  28 H28           -1.0875    -1.7314     0.4921 H       
  29 H29           -3.3017    -0.4681     0.4955 H       
  30 H30           -2.1536    -0.0209     1.7688 H       
  31 H31            1.6485     2.8071    -0.0061 H       
  32 H32            3.8874    -0.0036     0.8781 H       
  33 H33            3.8769    -0.0077    -0.9018 H       
  34 H34            5.4497     4.0909    -0.0310 H       
  35 H35            5.7710    -0.1708    -0.0121 H       
  36 H36            8.2251     0.0185    -0.0272 H       
  37 H37            9.2901     2.2373    -0.0493 H       
  38 H38            7.9045     4.2715    -0.0506 H       
  39 H39           -3.8296     2.7174     2.0938 H       
  40 H40           -7.0124     3.6191    -0.4215 H       
  41 H41           -5.4004     0.8253    -3.3046 H       
  42 H42           -4.6060     2.3453    -3.7809 H       
  43 H43           -3.8664     0.7832    -4.2065 H       
@<TRIPOS>BOND
   1    1    2 1
   2    1    7 2
   3    1    6 1
   4    2    3 1
   5    2    9 1
   6    3    4 1
   7    3   27 1
   8    3   28 1
   9    4    5 1
  10    4   29 1
  11    4   30 1
  12    5    6 am
  13    5   19 1
  14    6   13 2
  15    7    8 1
  16    7   31 1
  17    8    9 2
  18    8   10 1
  19   10   11 1
  20   10   32 1
  21   10   33 1
  22   11   12 1
  23   12   14 ar
  24   12   15 ar
  25   14   18 ar
  26   14   34 1
  27   15   16 ar
  28   15   35 1
  29   16   17 ar
  30   16   36 1
  31   17   18 ar
  32   17   37 1
  33   18   38 1
  34   19   20 ar
  35   19   24 ar
  36   20   21 ar
  37   20   39 1
  38   21   22 ar
  39   22   23 ar
  40   22   40 1
  41   23   24 ar
  42   24   25 1
  43   25   26 1
  44   26   41 1
  45   26   42 1
  46   26   43 1

#	End of record

