#	Name: ASD01912369
#	Creating user name:	WinNT
#	Creation time:	15. 06. 2019 19:59

#	Modifying user name:	WinNT
#	Modification time:	15. 06. 2019 19:59

#	Program:	/corina/corina34_cracker 3.40 0067  02.08.2006

@<TRIPOS>MOLECULE
ASD01912369
  43   45    0    0    0
SMALL
NO_CHARGES


@<TRIPOS>ATOM
   1 C1             0.7355     3.0951     4.5858 C.ar    
   2 C2             0.8099     1.8603     5.2050 C.ar    
   3 C3             2.0118     1.1653     5.1993 C.ar    
   4 C4             3.1026     1.7365     4.5694 C.ar    
   5 C5             2.9577     2.9874     3.9633 C.ar    
   6 N6             1.7875     3.6192     3.9921 N.ar    
   7 C7             4.0769     3.5932     3.3066 C.1     
   8 C8             4.9944     4.0899     2.7683 C.1     
   9 C9             6.1135     4.6957     2.1117 C.2     
  10 N10            5.4386     7.6467    -0.5134 N.am    
  11 C11            6.7156     6.9253    -0.5873 C.3     
  12 C12            7.1507     6.5449     0.8337 C.3     
  13 C13            5.9805     5.8881     1.5324 C.2     
  14 C14            4.6557     6.6185     1.5578 C.3     
  15 C15            4.2832     6.9970     0.1187 C.3     
  16 C16            5.3297     8.8930    -1.0150 C.2     
  17 O17            6.3173     9.4699    -1.4310 O.2     
  18 C18            4.0219     9.5534    -1.0595 C.2     
  19 C19            3.8011    10.8883    -0.8681 C.2     
  20 C20            2.4756    11.2395    -0.9649 C.2     
  21 C21            1.6382    10.2290    -1.2264 C.2     
  22 S22            2.4868     8.7563    -1.3750 S.3     
  23 N23            0.1721    10.3709    -1.3735 N.pl3   
  24 O24           -0.3485    11.4658    -1.2560 O.2     
  25 O25           -0.5135     9.3929    -1.6121 O.2     
  26 C26           -0.5698     3.8483     4.5854 C.3     
  27 H27           -0.0595     1.4405     5.6891 H       
  28 H28            2.0933     0.2000     5.6767 H       
  29 H29            4.0527     1.2234     4.5464 H       
  30 H30            7.0653     4.1861     2.0860 H       
  31 H31            6.5912     6.0225    -1.1853 H       
  32 H32            7.4714     7.5658    -1.0417 H       
  33 H33            7.9881     5.8487     0.7871 H       
  34 H34            7.4477     7.4409     1.3787 H       
  35 H35            3.8869     5.9696     1.9773 H       
  36 H36            4.7456     7.5206     2.1630 H       
  37 H37            3.4376     7.6847     0.1290 H       
  38 H38            4.0191     6.0983    -0.4388 H       
  39 H39            4.5895    11.5969    -0.6611 H       
  40 H40            2.1348    12.2566    -0.8388 H       
  41 H41           -0.6206     4.4878     5.4666 H       
  42 H42           -0.6348     4.4620     3.6869 H       
  43 H43           -1.3981     3.1399     4.6023 H       
@<TRIPOS>BOND
   1    1    2 ar
   2    1    6 ar
   3    1   26 1
   4    2    3 ar
   5    2   27 1
   6    3    4 ar
   7    3   28 1
   8    4    5 ar
   9    4   29 1
  10    5    6 ar
  11    5    7 1
  12    7    8 3
  13    8    9 1
  14    9   13 2
  15    9   30 1
  16   10   11 1
  17   10   15 1
  18   10   16 am
  19   11   12 1
  20   11   31 1
  21   11   32 1
  22   12   13 1
  23   12   33 1
  24   12   34 1
  25   13   14 1
  26   14   15 1
  27   14   35 1
  28   14   36 1
  29   15   37 1
  30   15   38 1
  31   16   17 2
  32   16   18 1
  33   18   19 2
  34   18   22 1
  35   19   20 1
  36   19   39 1
  37   20   21 2
  38   20   40 1
  39   21   22 1
  40   21   23 1
  41   23   24 2
  42   23   25 2
  43   26   41 1
  44   26   42 1
  45   26   43 1

#	End of record

