#	Name: ASD00120075
#	Creating user name:	WinNT
#	Creation time:	15. 06. 2019 18:31

#	Modifying user name:	WinNT
#	Modification time:	15. 06. 2019 18:31

#	Program:	/corina/corina34_cracker 3.40 0067  02.08.2006

@<TRIPOS>MOLECULE
ASD00120075
  67   71    0    0    0
SMALL
NO_CHARGES


@<TRIPOS>ATOM
   1 N1             0.5882     2.3691    -0.1817 N.3     
   2 C2             0.5821     0.9076    -0.0333 C.3     
   3 C3             1.1318     0.2654    -1.3114 C.3     
   4 N4             2.4472     0.8555    -1.6023 N.am    
   5 C5             2.5611     2.3216    -1.6317 C.3     
   6 C6             1.9552     2.8828    -0.3409 C.3     
   7 S7             3.7652    -0.1053    -1.8887 S.o2    
   8 O8             4.9089     0.6815    -1.5851 O.2     
   9 O9             3.4939    -1.3542    -1.2676 O.2     
  10 C10            3.8193    -0.4134    -3.6227 C.ar    
  11 C11            4.5182     0.4408    -4.4550 C.ar    
  12 C12            4.5605     0.1992    -5.8154 C.ar    
  13 C13            3.9043    -0.8969    -6.3435 C.ar    
  14 C14            3.2061    -1.7516    -5.5111 C.ar    
  15 C15            3.1674    -1.5124    -4.1501 C.ar    
  16 C16            3.9496    -1.1598    -7.8267 C.3     
  17 C17            4.5867    -2.5270    -8.0831 C.3     
  18 C18            6.0527    -2.4966    -7.6461 C.3     
  19 C19            6.6688    -3.9012    -7.7696 C.3     
  20 C20            7.8328    -3.7850    -8.7753 C.3     
  21 C21            8.2312    -2.2891    -8.7239 C.3     
  22 C22            6.8638    -1.5758    -8.5811 C.3     
  23 C23            2.5489    -1.1462    -8.3823 C.2     
  24 O24            1.6004    -1.0455    -7.6333 O.2     
  25 N25            2.3502    -1.2458    -9.7116 N.am    
  26 C26            1.0705    -1.1317   -10.2315 C.2     
  27 N27            0.7758    -1.2117   -11.4819 N.2     
  28 C28           -0.5186    -1.0803   -11.8330 C.ar    
  29 C29           -1.3636    -0.8704   -10.7392 C.ar    
  30 S30           -0.3805    -0.8648    -9.2757 S.3     
  31 C31           -1.0996    -1.1282   -13.1203 C.ar    
  32 C32           -2.4604    -0.9675   -13.2419 C.ar    
  33 C33           -3.2331    -0.7624   -12.1024 C.ar    
  34 N34           -2.6748    -0.7198   -10.9089 N.ar    
  35 O35           -4.5758    -0.6034   -12.2215 O.3     
  36 C36           -5.3141    -0.3963   -11.0157 C.3     
  37 H37            0.0019     2.6568    -0.9508 H       
  38 H38            1.2076     0.6254     0.8136 H       
  39 H39           -0.4381     0.5635     0.1369 H       
  40 H40            1.2370    -0.8096    -1.1650 H       
  41 H41            0.4517     0.4600    -2.1407 H       
  42 H42            3.6113     2.6060    -1.6971 H       
  43 H43            2.0184     2.7138    -2.4918 H       
  44 H44            1.9308     3.9713    -0.3939 H       
  45 H45            2.5616     2.5731     0.5102 H       
  46 H46            5.0309     1.2972    -4.0425 H       
  47 H47            5.1060     0.8670    -6.4658 H       
  48 H48            2.6932    -2.6078    -5.9237 H       
  49 H49            2.6220    -2.1802    -3.4998 H       
  50 H50            4.5417    -0.3857    -8.3150 H       
  51 H51            4.0537    -3.2887    -7.5140 H       
  52 H52            4.5292    -2.7610    -9.1461 H       
  53 H53            6.1281    -2.1449    -6.6171 H       
  54 H54            7.0439    -4.2309    -6.8008 H       
  55 H55            5.9234    -4.6045    -8.1408 H       
  56 H56            8.6682    -4.4131    -8.4661 H       
  57 H57            7.5000    -4.0569    -9.7770 H       
  58 H58            8.8642    -2.0874    -7.8598 H       
  59 H59            8.7285    -1.9899    -9.6466 H       
  60 H60            6.3746    -1.4910    -9.5514 H       
  61 H61            6.9921    -0.5918    -8.1302 H       
  62 H62            3.1028    -1.3974   -10.3045 H       
  63 H63           -0.4854    -1.2879   -13.9941 H       
  64 H64           -2.9264    -1.0000   -14.2156 H       
  65 H65           -6.3722    -0.2844   -11.2521 H       
  66 H66           -5.1781    -1.2524   -10.3548 H       
  67 H67           -4.9551     0.5058   -10.5202 H       
@<TRIPOS>BOND
   1    1    2 1
   2    1    6 1
   3    1   37 1
   4    2    3 1
   5    2   38 1
   6    2   39 1
   7    3    4 1
   8    3   40 1
   9    3   41 1
  10    4    5 1
  11    4    7 am
  12    5    6 1
  13    5   42 1
  14    5   43 1
  15    6   44 1
  16    6   45 1
  17    7    8 2
  18    7    9 2
  19    7   10 1
  20   10   11 ar
  21   10   15 ar
  22   11   12 ar
  23   11   46 1
  24   12   13 ar
  25   12   47 1
  26   13   14 ar
  27   13   16 1
  28   14   15 ar
  29   14   48 1
  30   15   49 1
  31   16   17 1
  32   16   23 1
  33   16   50 1
  34   17   18 1
  35   17   51 1
  36   17   52 1
  37   18   19 1
  38   18   22 1
  39   18   53 1
  40   19   20 1
  41   19   54 1
  42   19   55 1
  43   20   21 1
  44   20   56 1
  45   20   57 1
  46   21   22 1
  47   21   58 1
  48   21   59 1
  49   22   60 1
  50   22   61 1
  51   23   24 2
  52   23   25 am
  53   25   26 1
  54   25   62 1
  55   26   27 2
  56   26   30 1
  57   27   28 1
  58   28   29 ar
  59   28   31 ar
  60   29   30 1
  61   29   34 ar
  62   31   32 ar
  63   31   63 1
  64   32   33 ar
  65   32   64 1
  66   33   34 ar
  67   33   35 1
  68   35   36 1
  69   36   65 1
  70   36   66 1
  71   36   67 1

#	End of record

