#	Name: ASD03950012
#	Creating user name:	WinNT
#	Creation time:	15. 06. 2019 20:48

#	Modifying user name:	WinNT
#	Modification time:	15. 06. 2019 20:48

#	Program:	/corina/corina34_cracker 3.40 0067  02.08.2006

@<TRIPOS>MOLECULE
ASD03950012
  56   59    0    0    0
SMALL
NO_CHARGES


@<TRIPOS>ATOM
   1 N1            -0.0407     1.3904    -0.0740 N.pl3   
   2 N2            -0.0178    -0.0078    -0.0658 N.2     
   3 C3             1.2126    -0.4344    -0.0697 C.2     
   4 C4             2.0874     0.7355    -0.0814 C.ar    
   5 C5             3.4744     0.9050    -0.0901 C.ar    
   6 C6             4.0152     2.1830    -0.1010 C.ar    
   7 C7             3.1820     3.3030    -0.1029 C.ar    
   8 C8             1.8010     3.1514    -0.0938 C.ar    
   9 C9             1.2412     1.8603    -0.0836 C.ar    
  10 C10            0.9254     4.3387    -0.0954 C.2     
  11 O11           -0.2830     4.2029    -0.0874 O.2     
  12 N12            1.4647     5.5738    -0.1056 N.am    
  13 C13            5.4887     2.3601    -0.1103 C.ar    
  14 C14            6.0390     3.6401    -0.1213 C.ar    
  15 C15            7.4100     3.7990    -0.1294 C.ar    
  16 C16            8.2373     2.6905    -0.1271 C.ar    
  17 C17            7.6963     1.4175    -0.1167 C.ar    
  18 C18            6.3267     1.2471    -0.1022 C.ar    
  19 N19            1.2042    -4.6675    -0.0441 N.am    
  20 C20            1.5999    -4.0210     1.2145 C.3     
  21 C21            1.1202    -2.5663     1.1937 C.3     
  22 C22            1.6543    -1.8752    -0.0630 C.3     
  23 C23            1.1091    -2.5814    -1.3064 C.3     
  24 C24            1.5887    -4.0363    -1.3139 C.3     
  25 S25            0.3470    -6.0844    -0.0317 S.o2    
  26 O26           -0.2352    -6.1304     1.2637 O.2     
  27 O27           -0.4631    -6.0140    -1.1970 O.2     
  28 C28            1.6070    -7.3772    -0.2096 C.3     
  29 C29            2.6533    -7.2253     0.8963 C.3     
  30 C30            0.9455    -8.7525    -0.1004 C.3     
  31 H31           -0.8405     1.9393    -0.0767 H       
  32 H32            4.1246     0.0427    -0.0880 H       
  33 H33            3.6134     4.2931    -0.1111 H       
  34 H34            2.4286     5.6821    -0.1119 H       
  35 H35            0.8889     6.3544    -0.1066 H       
  36 H36            5.3939     4.5063    -0.1239 H       
  37 H37            7.8376     4.7907    -0.1380 H       
  38 H38            9.3096     2.8194    -0.1338 H       
  39 H39            8.3468     0.5554    -0.1156 H       
  40 H40            5.9054     0.2528    -0.0892 H       
  41 H41            1.1424    -4.5447     2.0539 H       
  42 H42            2.6851    -4.0465     1.3130 H       
  43 H43            0.0304    -2.5427     1.1866 H       
  44 H44            1.4900    -2.0486     2.0787 H       
  45 H45            2.7433    -1.9211    -0.0676 H       
  46 H46            0.0195    -2.5576    -1.2899 H       
  47 H47            1.4711    -2.0744    -2.2008 H       
  48 H48            2.6730    -4.0630    -1.4217 H       
  49 H49            1.1238    -4.5700    -2.1428 H       
  50 H50            2.0900    -7.2826    -1.1822 H       
  51 H51            3.3589    -8.0545     0.8454 H       
  52 H52            3.1880    -6.2847     0.7639 H       
  53 H53            2.1585    -7.2284     1.8675 H       
  54 H54            0.2001    -8.8608    -0.8883 H       
  55 H55            1.7026    -9.5294    -0.2073 H       
  56 H56            0.4626    -8.8472     0.8722 H       
@<TRIPOS>BOND
   1    1    2 1
   2    1    9 1
   3    1   31 1
   4    2    3 2
   5    3    4 1
   6    3   22 1
   7    4    5 ar
   8    4    9 ar
   9    5    6 ar
  10    5   32 1
  11    6    7 ar
  12    6   13 1
  13    7    8 ar
  14    7   33 1
  15    8    9 ar
  16    8   10 1
  17   10   11 2
  18   10   12 am
  19   12   34 1
  20   12   35 1
  21   13   14 ar
  22   13   18 ar
  23   14   15 ar
  24   14   36 1
  25   15   16 ar
  26   15   37 1
  27   16   17 ar
  28   16   38 1
  29   17   18 ar
  30   17   39 1
  31   18   40 1
  32   19   20 1
  33   19   24 1
  34   19   25 am
  35   20   21 1
  36   20   41 1
  37   20   42 1
  38   21   22 1
  39   21   43 1
  40   21   44 1
  41   22   23 1
  42   22   45 1
  43   23   24 1
  44   23   46 1
  45   23   47 1
  46   24   48 1
  47   24   49 1
  48   25   26 2
  49   25   27 2
  50   25   28 1
  51   28   29 1
  52   28   30 1
  53   28   50 1
  54   29   51 1
  55   29   52 1
  56   29   53 1
  57   30   54 1
  58   30   55 1
  59   30   56 1

#	End of record

