#	Name: ASD01860007
#	Creating user name:	WinNT
#	Creation time:	15. 06. 2019 19:38

#	Modifying user name:	WinNT
#	Modification time:	15. 06. 2019 19:38

#	Program:	/corina/corina34_cracker 3.40 0067  02.08.2006

@<TRIPOS>MOLECULE
ASD01860007
  16   15    0    0    0
SMALL
NO_CHARGES


@<TRIPOS>ATOM
   1 C1            -0.0184     1.5028     0.0103 C.2     
   2 C2             0.0021    -0.0041     0.0020 C.3     
   3 C3             1.4513    -0.4944    -0.0145 C.3     
   4 C4             1.4717    -2.0012    -0.0227 C.2     
   5 O5             1.0236     2.1234     0.0037 O.2     
   6 N6            -1.1946     2.1607     0.0195 N.am    
   7 O7             0.4298    -2.6219    -0.0161 O.2     
   8 N8             2.6479    -2.6591    -0.0375 N.am    
   9 H9            -0.4983    -0.3791     0.8948 H       
  10 H10           -0.5153    -0.3696    -0.8850 H       
  11 H11            1.9516    -0.1193    -0.9073 H       
  12 H12            1.9686    -0.1289     0.8726 H       
  13 H13           -2.0280     1.6644     0.0207 H       
  14 H14           -1.2077     3.1306     0.0248 H       
  15 H15            3.4813    -2.1628    -0.0428 H       
  16 H16            2.6611    -3.6290    -0.0428 H       
@<TRIPOS>BOND
   1    1    2 1
   2    1    5 2
   3    1    6 am
   4    2    3 1
   5    2    9 1
   6    2   10 1
   7    3    4 1
   8    3   11 1
   9    3   12 1
  10    4    7 2
  11    4    8 am
  12    6   13 1
  13    6   14 1
  14    8   15 1
  15    8   16 1

#	End of record

