#	Name: ASD00842077
#	Creating user name:	WinNT
#	Creation time:	15. 06. 2019 18:43

#	Modifying user name:	WinNT
#	Modification time:	15. 06. 2019 18:43

#	Program:	/corina/corina34_cracker 3.40 0067  02.08.2006

@<TRIPOS>MOLECULE
ASD00842077
  88   93    0    0    0
SMALL
NO_CHARGES


@<TRIPOS>ATOM
   1 F1             6.1248    -1.8062    -1.9318 F       
   2 C2             1.0630     1.5480    -0.5418 C.ar    
   3 C3             1.3509     0.2042    -0.7299 C.ar    
   4 C4             1.2592    -0.6784     0.3368 C.ar    
   5 C5             0.8815    -0.2173     1.5827 C.ar    
   6 C6             0.5945     1.1228     1.7675 C.ar    
   7 C7             0.6856     2.0044     0.7065 C.ar    
   8 C8             1.5708    -2.1391     0.1358 C.3     
   9 C9             1.2742    -2.9229     1.3966 C.2     
  10 C10            0.7727    -2.6988    -1.0434 C.3     
  11 C11           -0.6941    -2.4251    -0.8323 C.2     
  12 N12           -1.6024    -2.9132    -1.7002 N.am    
  13 O13           -1.0573    -1.7656     0.1185 O.2     
  14 C14           -3.0268    -2.5681    -1.5760 C.3     
  15 C15           -3.5269    -2.0683    -2.9355 C.3     
  16 N16           -3.2178    -3.0691    -3.9655 N.3     
  17 C17           -1.7679    -3.2567    -4.1081 C.3     
  18 C18           -1.1948    -3.8003    -2.8003 C.3     
  19 C19           -3.8310    -2.7085    -5.2507 C.3     
  20 C20           -3.3867    -3.7034    -6.3266 C.3     
  21 C21           -4.0761    -3.3590    -7.6488 C.3     
  22 N22           -5.5328    -3.4188    -7.4729 N.3     
  23 C23           -5.9883    -2.4390    -6.4785 C.3     
  24 C24           -5.3560    -2.7559    -5.1214 C.3     
  25 H25           -6.0089    -3.2889    -8.3530 H       
  26 O26            0.1943    -3.0364     1.9370 O.2     
  27 N27            2.4318    -3.4700     1.8040 N.am    
  28 C28            3.0530    -2.3392    -0.0817 C.ar    
  29 C29            3.4953    -3.1469     0.9586 C.ar    
  30 C30            3.9259    -1.8904    -1.0470 C.ar    
  31 C31            5.2644    -2.2447    -0.9869 C.ar    
  32 C32            5.7172    -3.0499     0.0459 C.ar    
  33 C33            4.8417    -3.5000     1.0141 C.ar    
  34 Cl34           7.3935    -3.4948     0.1230 Cl      
  35 C35            2.3069    -6.0847     2.6538 C.ar    
  36 C36            1.0630    -6.4711     2.1769 C.ar    
  37 C37            3.3329    -7.0069     2.7308 C.ar    
  38 C38            3.1207    -8.3136     2.3327 C.ar    
  39 C39            1.8814    -8.7014     1.8569 C.ar    
  40 C40            0.8524    -7.7834     1.7784 C.ar    
  41 H41            1.7181    -9.7228     1.5465 H       
  42 O42            0.0521    -5.5660     2.1007 O.3     
  43 C43           -1.2016    -6.0344     1.5999 C.3     
  44 C44           -2.2085    -4.8825     1.5879 C.3     
  45 O45            1.7218    -0.2471    -1.9569 O.3     
  46 C46            2.2322     0.0372    -4.3019 C.3     
  47 C47            1.6859     0.6933    -3.0322 C.3     
  48 S48            2.5805    -4.4175     3.1540 S.o2    
  49 O49            3.9419    -4.3366     3.5531 O.2     
  50 O50            1.4985    -4.0721     4.0079 O.2     
  51 H51            1.1380     2.2378    -1.3695 H       
  52 H52            0.8099    -0.9039     2.4133 H       
  53 H53            0.2987     1.4814     2.7424 H       
  54 H54            0.4610     3.0505     0.8534 H       
  55 H55            1.1026    -2.2199    -1.9654 H       
  56 H56            0.9351    -3.7742    -1.1144 H       
  57 H57           -3.5930    -3.4510    -1.2796 H       
  58 H58           -3.1496    -1.7832    -0.8296 H       
  59 H59           -4.6048    -1.9125    -2.8917 H       
  60 H60           -3.0328    -1.1285    -3.1818 H       
  61 H61           -1.5701    -3.9627    -4.9147 H       
  62 H62           -1.2983    -2.3003    -4.3380 H       
  63 H63           -0.1070    -3.8327    -2.8627 H       
  64 H64           -1.5840    -4.8020    -2.6183 H       
  65 H65           -3.5196    -1.7030    -5.5335 H       
  66 H66           -2.3058    -3.6436    -6.4535 H       
  67 H67           -3.6630    -4.7136    -6.0245 H       
  68 H68           -3.7886    -2.3539    -7.9573 H       
  69 H69           -3.7730    -4.0741    -8.4135 H       
  70 H70           -5.6918    -1.4382    -6.7925 H       
  71 H71           -7.0739    -2.4860    -6.3932 H       
  72 H72           -5.6632    -3.7513    -4.8003 H       
  73 H73           -5.6820    -2.0193    -4.3871 H       
  74 H74            3.5680    -1.2633    -1.8502 H       
  75 H75            5.2015    -4.1273     1.8162 H       
  76 H76            4.3016    -6.7065     3.1020 H       
  77 H77            3.9241    -9.0328     2.3930 H       
  78 H78           -0.1154    -8.0869     1.4075 H       
  79 H79           -1.0697    -6.4123     0.5860 H       
  80 H80           -1.5726    -6.8346     2.2404 H       
  81 H81           -2.3405    -4.5047     2.6017 H       
  82 H82           -1.8375    -4.0823     0.9474 H       
  83 H83           -3.1648    -5.2398     1.2059 H       
  84 H84            1.5707    -0.7744    -4.6050 H       
  85 H85            2.2867     0.7784    -5.0993 H       
  86 H86            3.2282    -0.3597    -4.1061 H       
  87 H87            0.6575     1.0123    -3.2017 H       
  88 H88            2.2978     1.5589    -2.7785 H       
@<TRIPOS>BOND
   1    1   31 1
   2    2    3 ar
   3    2    7 ar
   4    2   51 1
   5    3    4 ar
   6    3   45 1
   7    4    5 ar
   8    4    8 1
   9    5    6 ar
  10    5   52 1
  11    6    7 ar
  12    6   53 1
  13    7   54 1
  14    8    9 1
  15    8   10 1
  16    8   28 1
  17    9   26 2
  18    9   27 am
  19   10   11 1
  20   10   55 1
  21   10   56 1
  22   11   12 am
  23   11   13 2
  24   12   14 1
  25   12   18 1
  26   14   15 1
  27   14   57 1
  28   14   58 1
  29   15   16 1
  30   15   59 1
  31   15   60 1
  32   16   17 1
  33   16   19 1
  34   17   18 1
  35   17   61 1
  36   17   62 1
  37   18   63 1
  38   18   64 1
  39   19   20 1
  40   19   24 1
  41   19   65 1
  42   20   21 1
  43   20   66 1
  44   20   67 1
  45   21   22 1
  46   21   68 1
  47   21   69 1
  48   22   23 1
  49   22   25 1
  50   23   24 1
  51   23   70 1
  52   23   71 1
  53   24   72 1
  54   24   73 1
  55   27   48 am
  56   27   29 1
  57   28   29 ar
  58   28   30 ar
  59   29   33 ar
  60   30   31 ar
  61   30   74 1
  62   31   32 ar
  63   32   33 ar
  64   32   34 1
  65   33   75 1
  66   35   36 ar
  67   35   37 ar
  68   35   48 1
  69   36   42 1
  70   36   40 ar
  71   37   38 ar
  72   37   76 1
  73   38   39 ar
  74   38   77 1
  75   39   40 ar
  76   39   41 1
  77   40   78 1
  78   42   43 1
  79   43   44 1
  80   43   79 1
  81   43   80 1
  82   44   81 1
  83   44   82 1
  84   44   83 1
  85   45   47 1
  86   46   47 1
  87   46   84 1
  88   46   85 1
  89   46   86 1
  90   47   87 1
  91   47   88 1
  92   48   49 2
  93   48   50 2

#	End of record

