#	Name: ASD03490108
#	Creating user name:	WinNT
#	Creation time:	15. 06. 2019 20:42

#	Modifying user name:	WinNT
#	Modification time:	15. 06. 2019 20:42

#	Program:	/corina/corina34_cracker 3.40 0067  02.08.2006

@<TRIPOS>MOLECULE
ASD03490108
  47   49    0    0    0
SMALL
NO_CHARGES


@<TRIPOS>ATOM
   1 Cl1           10.7390     1.1717    -0.5683 Cl      
   2 C2            -0.0142     1.5491     0.0010 C.3     
   3 C3            -0.0012     0.0192    -0.0107 C.3     
   4 C4             0.7331    -0.4941     1.2296 C.3     
   5 C5            -1.4393    -0.5031    -0.0046 C.3     
   6 C6             0.7047    -0.4678    -1.2499 C.2     
   7 C7             2.0860    -0.4499    -1.4633 C.2     
   8 C8             2.3250    -0.9731    -2.6970 C.2     
   9 N9             3.5736    -1.1358    -3.2966 N.am    
  10 C10            4.6896    -0.7574    -2.6426 C.2     
  11 O11            4.6079    -0.2742    -1.5298 O.2     
  12 N12            5.8963    -0.9147    -3.2220 N.am    
  13 C13            7.0447    -0.4198    -2.5929 C.ar    
  14 C14            8.2473    -1.1056    -2.7012 C.ar    
  15 C15            9.3789    -0.6152    -2.0795 C.ar    
  16 C16            9.3150     0.5584    -1.3490 C.ar    
  17 C17            8.1177     1.2437    -1.2395 C.ar    
  18 C18            6.9846     0.7606    -1.8641 C.ar    
  19 N19            1.1221    -1.3082    -3.2380 N.pl3   
  20 N20            0.1285    -0.9839    -2.3054 N.2     
  21 C21            0.9148    -1.8801    -4.5007 C.ar    
  22 C22           -0.1079    -2.8002    -4.6882 C.ar    
  23 C23           -0.3097    -3.3621    -5.9336 C.ar    
  24 C24            0.5060    -3.0096    -6.9931 C.ar    
  25 C25            1.5258    -2.0939    -6.8094 C.ar    
  26 C26            1.7283    -1.5235    -5.5679 C.ar    
  27 H27            1.0104     1.9211    -0.0034 H       
  28 H28           -0.5373     1.9148    -0.8826 H       
  29 H29           -0.5248     1.9013     0.8973 H       
  30 H30            0.2224    -0.1419     2.1258 H       
  31 H31            0.7423    -1.5841     1.2212 H       
  32 H32            1.7576    -0.1221     1.2252 H       
  33 H33           -1.9624    -0.1374    -0.8881 H       
  34 H34           -1.4301    -1.5930    -0.0129 H       
  35 H35           -1.9500    -0.1509     0.8917 H       
  36 H36            2.8315    -0.0852    -0.7721 H       
  37 H37            3.6387    -1.5212    -4.1843 H       
  38 H38            5.9689    -1.3707    -4.0751 H       
  39 H39            8.2976    -2.0217    -3.2708 H       
  40 H40           10.3144    -1.1484    -2.1631 H       
  41 H41            8.0704     2.1592    -0.6686 H       
  42 H42            6.0515     1.2984    -1.7823 H       
  43 H43           -0.7449    -3.0765    -3.8609 H       
  44 H44           -1.1051    -4.0779    -6.0801 H       
  45 H45            0.3466    -3.4506    -7.9660 H       
  46 H46            2.1616    -1.8210    -7.6386 H       
  47 H47            2.5218    -0.8048    -5.4261 H       
@<TRIPOS>BOND
   1    1   16 1
   2    2    3 1
   3    2   27 1
   4    2   28 1
   5    2   29 1
   6    3    4 1
   7    3    5 1
   8    3    6 1
   9    4   30 1
  10    4   31 1
  11    4   32 1
  12    5   33 1
  13    5   34 1
  14    5   35 1
  15    6    7 1
  16    6   20 2
  17    7    8 2
  18    7   36 1
  19    8    9 1
  20    8   19 1
  21    9   10 am
  22    9   37 1
  23   10   11 2
  24   10   12 am
  25   12   13 1
  26   12   38 1
  27   13   14 ar
  28   13   18 ar
  29   14   15 ar
  30   14   39 1
  31   15   16 ar
  32   15   40 1
  33   16   17 ar
  34   17   18 ar
  35   17   41 1
  36   18   42 1
  37   19   20 1
  38   19   21 1
  39   21   22 ar
  40   21   26 ar
  41   22   23 ar
  42   22   43 1
  43   23   24 ar
  44   23   44 1
  45   24   25 ar
  46   24   45 1
  47   25   26 ar
  48   25   46 1
  49   26   47 1

#	End of record

