#	Name: ASD02030119
#	Creating user name:	WinNT
#	Creation time:	15. 06. 2019 20:14

#	Modifying user name:	WinNT
#	Modification time:	15. 06. 2019 20:14

#	Program:	/corina/corina34_cracker 3.40 0067  02.08.2006

@<TRIPOS>MOLECULE
ASD02030119
  56   59    0    0    0
SMALL
NO_CHARGES


@<TRIPOS>ATOM
   1 N1            -0.2115     1.4219    -0.1404 N.am    
   2 C2            -0.0215    -0.0116     0.1217 C.3     
   3 C3            -0.9184    -0.4180     1.2976 C.3     
   4 N4            -2.2773     0.0821     1.0464 N.am    
   5 C5            -2.4673     1.5157     0.7844 C.3     
   6 C6            -1.5711     1.9229    -0.3860 C.3     
   7 C7             0.8416     2.2630    -0.1497 C.2     
   8 C8             2.1839     1.7709     0.2263 C.2     
   9 N9             3.2628     2.5078     0.3813 N.2     
  10 N10            2.5164     0.4911     0.4761 N.2     
  11 C11            3.7908     0.4711     0.7731 C.2     
  12 N12            4.2440     1.7399     0.7097 N.pl3   
  13 O13            0.6876     3.4262    -0.4673 O.2     
  14 C14           -3.3304    -0.7589     1.0558 C.2     
  15 C15           -4.7026    -0.2272     0.9117 C.ar    
  16 O16           -3.1522    -1.9546     1.1826 O.2     
  17 C17           -1.5442     3.4480    -0.5057 C.3     
  18 C18           -2.1092     1.3122    -1.6815 C.3     
  19 C19            5.5598     2.1532     0.9585 C.ar    
  20 C20            5.8978     3.4962     0.8587 C.ar    
  21 C21            7.1955     3.9004     1.1045 C.ar    
  22 C22            8.1577     2.9690     1.4492 C.ar    
  23 C23            7.8242     1.6307     1.5494 C.ar    
  24 C24            6.5269     1.2212     1.3108 C.ar    
  25 C25           -5.6731    -0.9682     0.2375 C.ar    
  26 C26           -6.9565    -0.4643     0.1061 C.ar    
  27 C27           -7.2749     0.7749     0.6438 C.ar    
  28 C28           -6.3135     1.5118     1.3131 C.ar    
  29 C29           -5.0326     1.0156     1.4550 C.ar    
  30 O30           -7.9046    -1.1837    -0.5502 O.3     
  31 C31           -9.2069    -0.6036    -0.6482 C.3     
  32 Cl32          -6.7206     3.0612     1.9820 Cl      
  33 H33           -0.2968    -0.5850    -0.7635 H       
  34 H34            1.0215    -0.2023     0.3742 H       
  35 H35           -0.9386    -1.5043     1.3840 H       
  36 H36           -0.5328     0.0177     2.2193 H       
  37 H37           -3.5104     1.7063     0.5318 H       
  38 H38           -2.1920     2.0890     1.6696 H       
  39 H39            4.3732    -0.4025     1.0262 H       
  40 H40           -1.0480     3.8722     0.3672 H       
  41 H41           -1.0004     3.7322    -1.4066 H       
  42 H42           -2.5649     3.8261    -0.5629 H       
  43 H43           -3.1226     1.6719    -1.8593 H       
  44 H44           -1.4689     1.6038    -2.5140 H       
  45 H45           -2.1193     0.2257    -1.5942 H       
  46 H46            5.1469     4.2240     0.5888 H       
  47 H47            7.4590     4.9449     1.0270 H       
  48 H48            9.1719     3.2873     1.6402 H       
  49 H49            8.5779     0.9056     1.8188 H       
  50 H50            6.2669     0.1759     1.3896 H       
  51 H51           -5.4244    -1.9322    -0.1812 H       
  52 H52           -8.2763     1.1657     0.5392 H       
  53 H53           -4.2844     1.5926     1.9781 H       
  54 H54           -9.1422     0.3472    -1.1773 H       
  55 H55           -9.8654    -1.2791    -1.1942 H       
  56 H56           -9.6064    -0.4363     0.3520 H       
@<TRIPOS>BOND
   1    1    2 1
   2    1    7 am
   3    1    6 1
   4    2    3 1
   5    2   33 1
   6    2   34 1
   7    3    4 1
   8    3   35 1
   9    3   36 1
  10    4    5 1
  11    4   14 am
  12    5    6 1
  13    5   37 1
  14    5   38 1
  15    6   17 1
  16    6   18 1
  17    7    8 1
  18    7   13 2
  19    8    9 2
  20    8   10 1
  21    9   12 1
  22   10   11 2
  23   11   12 1
  24   11   39 1
  25   12   19 1
  26   14   15 1
  27   14   16 2
  28   15   25 ar
  29   15   29 ar
  30   17   40 1
  31   17   41 1
  32   17   42 1
  33   18   43 1
  34   18   44 1
  35   18   45 1
  36   19   20 ar
  37   19   24 ar
  38   20   21 ar
  39   20   46 1
  40   21   22 ar
  41   21   47 1
  42   22   23 ar
  43   22   48 1
  44   23   24 ar
  45   23   49 1
  46   24   50 1
  47   25   26 ar
  48   25   51 1
  49   26   27 ar
  50   26   30 1
  51   27   28 ar
  52   27   52 1
  53   28   29 ar
  54   28   32 1
  55   29   53 1
  56   30   31 1
  57   31   54 1
  58   31   55 1
  59   31   56 1

#	End of record

