#	Name: ASD01001173
#	Creating user name:	WinNT
#	Creation time:	15. 06. 2019 18:55

#	Modifying user name:	WinNT
#	Modification time:	15. 06. 2019 18:55

#	Program:	/corina/corina34_cracker 3.40 0067  02.08.2006

@<TRIPOS>MOLECULE
ASD01001173
  45   48    0    0    0
SMALL
NO_CHARGES


@<TRIPOS>ATOM
   1 C1            -1.1465    -1.0408    -0.7022 C.ar    
   2 C2            -0.5628    -2.2871    -0.5718 C.ar    
   3 C3            -0.3586     0.0950    -0.7008 C.ar    
   4 C4             0.8088    -2.3975    -0.4402 C.ar    
   5 C5             1.0130    -0.0154    -0.5691 C.ar    
   6 C6             1.5968    -1.2618    -0.4393 C.ar    
   7 C7             1.4451    -3.7561    -0.2971 C.3     
   8 C8             2.0195    -4.2062    -1.6480 C.3     
   9 N9             2.5558    -3.6869     0.6621 N.pl3   
  10 C10            2.7454    -5.5412    -1.4536 C.3     
  11 C11            3.0073    -3.1509    -2.1378 C.3     
  12 C12            3.7544    -3.0817     0.2691 C.ar    
  13 C13            3.4415    -5.9320    -2.7603 C.3     
  14 C14            4.0072    -2.8115    -1.0680 C.ar    
  15 O15            3.6714    -3.5953    -3.3171 O.3     
  16 C16            4.6965    -2.7511     1.2361 C.ar    
  17 C17            4.4046    -4.8120    -3.1649 C.3     
  18 C18            5.2034    -2.2149    -1.4288 C.ar    
  19 C19            5.8863    -2.1556     0.8670 C.ar    
  20 C20            6.1389    -1.8887    -0.4659 C.ar    
  21 C21            5.4867    -1.9204    -2.8793 C.3     
  22 C22            6.9077    -1.7968     1.9154 C.3     
  23 H23           -2.2177    -0.9548    -0.8095 H       
  24 H24           -1.1784    -3.1745    -0.5725 H       
  25 H25           -0.8146     1.0687    -0.8029 H       
  26 H26            1.6286     0.8719    -0.5687 H       
  27 H27            2.6683    -1.3480    -0.3360 H       
  28 H28            0.7032    -4.4767     0.0471 H       
  29 H29            1.2105    -4.3297    -2.3680 H       
  30 H30            2.4595    -4.0550     1.5544 H       
  31 H31            3.4876    -5.4401    -0.6618 H       
  32 H32            2.0239    -6.3115    -1.1810 H       
  33 H33            2.4502    -2.2477    -2.3868 H       
  34 H34            3.9987    -6.8574    -2.6143 H       
  35 H35            2.6961    -6.0727    -3.5430 H       
  36 H36            4.4979    -2.9603     2.2768 H       
  37 H37            5.1625    -4.6863    -2.3916 H       
  38 H38            4.8853    -5.0683    -4.1090 H       
  39 H39            7.0701    -1.4243    -0.7551 H       
  40 H40            4.9780    -1.0011    -3.1695 H       
  41 H41            6.5607    -1.8023    -3.0231 H       
  42 H42            5.1262    -2.7448    -3.4946 H       
  43 H43            7.5857    -2.6371     2.0647 H       
  44 H44            7.4751    -0.9261     1.5868 H       
  45 H45            6.4011    -1.5677     2.8529 H       
@<TRIPOS>BOND
   1    1    2 ar
   2    1    3 ar
   3    1   23 1
   4    2    4 ar
   5    2   24 1
   6    3    5 ar
   7    3   25 1
   8    4    6 ar
   9    4    7 1
  10    5    6 ar
  11    5   26 1
  12    6   27 1
  13    7    8 1
  14    7    9 1
  15    7   28 1
  16    8   10 1
  17    8   11 1
  18    8   29 1
  19    9   12 1
  20    9   30 1
  21   10   13 1
  22   10   31 1
  23   10   32 1
  24   11   14 1
  25   11   15 1
  26   11   33 1
  27   12   14 ar
  28   12   16 ar
  29   13   17 1
  30   13   34 1
  31   13   35 1
  32   14   18 ar
  33   15   17 1
  34   16   19 ar
  35   16   36 1
  36   17   37 1
  37   17   38 1
  38   18   21 1
  39   18   20 ar
  40   19   22 1
  41   19   20 ar
  42   20   39 1
  43   21   40 1
  44   21   41 1
  45   21   42 1
  46   22   43 1
  47   22   44 1
  48   22   45 1

#	End of record

