#	Name: ASD02190003
#	Creating user name:	WinNT
#	Creation time:	15. 06. 2019 20:18

#	Modifying user name:	WinNT
#	Modification time:	15. 06. 2019 20:18

#	Program:	/corina/corina34_cracker 3.40 0067  02.08.2006

@<TRIPOS>MOLECULE
ASD02190003
  45   47    0    0    0
SMALL
NO_CHARGES


@<TRIPOS>ATOM
   1 C1             0.1575     0.7447    -0.0783 C.ar    
   2 C2             0.4175    -0.6144    -0.0097 C.ar    
   3 C3             1.7395    -1.0659     0.0531 C.ar    
   4 C4             2.7842    -0.1451     0.0463 C.ar    
   5 C5             2.5108     1.2063    -0.0224 C.ar    
   6 C6             1.2019     1.6500    -0.0845 C.ar    
   7 C7             2.0276    -2.5191     0.1273 C.ar    
   8 C8             2.9529    -3.0936    -0.7420 C.ar    
   9 C9             3.2177    -4.4464    -0.6692 C.ar    
  10 C10            2.5664    -5.2321     0.2640 C.ar    
  11 C11            1.6456    -4.6672     1.1302 C.ar    
  12 C12            1.3782    -3.3136     1.0703 C.ar    
  13 Cl13           0.8319    -5.6606     2.2985 Cl      
  14 O14           -0.6081    -1.5051    -0.0031 O.3     
  15 C15           -1.9318    -0.9709    -0.0692 C.3     
  16 C16            3.6422     2.2017    -0.0297 C.3     
  17 C17            4.0654     2.4708    -1.4508 C.ar    
  18 C18            3.4684     3.4921    -2.1668 C.ar    
  19 C19            3.8540     3.7412    -3.4694 C.ar    
  20 C20            4.8426     2.9650    -4.0599 C.ar    
  21 C21            5.4404     1.9404    -3.3380 C.ar    
  22 C22            5.0538     1.6995    -2.0342 C.ar    
  23 N23            5.2352     3.2146    -5.3798 N.am    
  24 C24            5.2705     4.4792    -5.8447 C.2     
  25 N25            5.7376     4.7287    -7.0840 N.am    
  26 O26            4.8810     5.3948    -5.1460 O.2     
  27 H27           -0.8621     1.0969    -0.1314 H       
  28 H28            3.8072    -0.4879     0.0950 H       
  29 H29            0.9953     2.7087    -0.1384 H       
  30 H30            3.4619    -2.4815    -1.4718 H       
  31 H31            3.9347    -4.8922    -1.3426 H       
  32 H32            2.7764    -6.2901     0.3172 H       
  33 H33            0.6602    -2.8734     1.7463 H       
  34 H34           -2.6542    -1.7871    -0.0562 H       
  35 H35           -2.1040    -0.3196     0.7877 H       
  36 H36           -2.0470    -0.3984    -0.9896 H       
  37 H37            3.3112     3.1314     0.4330 H       
  38 H38            4.4855     1.7974     0.5301 H       
  39 H39            2.6997     4.0954    -1.7071 H       
  40 H40            3.3869     4.5386    -4.0284 H       
  41 H41            6.2093     1.3348    -3.7946 H       
  42 H42            5.5186     0.9029    -1.4721 H       
  43 H43            5.4820     2.4775    -5.9600 H       
  44 H44            6.0484     3.9982    -7.6414 H       
  45 H45            5.7630     5.6388    -7.4186 H       
@<TRIPOS>BOND
   1    1    2 ar
   2    1    6 ar
   3    1   27 1
   4    2    3 ar
   5    2   14 1
   6    3    4 ar
   7    3    7 1
   8    4    5 ar
   9    4   28 1
  10    5    6 ar
  11    5   16 1
  12    6   29 1
  13    7    8 ar
  14    7   12 ar
  15    8    9 ar
  16    8   30 1
  17    9   10 ar
  18    9   31 1
  19   10   11 ar
  20   10   32 1
  21   11   12 ar
  22   11   13 1
  23   12   33 1
  24   14   15 1
  25   15   34 1
  26   15   35 1
  27   15   36 1
  28   16   17 1
  29   16   37 1
  30   16   38 1
  31   17   18 ar
  32   17   22 ar
  33   18   19 ar
  34   18   39 1
  35   19   20 ar
  36   19   40 1
  37   20   21 ar
  38   20   23 1
  39   21   22 ar
  40   21   41 1
  41   22   42 1
  42   23   24 am
  43   23   43 1
  44   24   25 am
  45   24   26 2
  46   25   44 1
  47   25   45 1

#	End of record

