#	Name: ASD08070622
#	Creating user name:	WinNT
#	Creation time:	15. 06. 2019 21:15

#	Modifying user name:	WinNT
#	Modification time:	15. 06. 2019 21:15

#	Program:	/corina/corina34_cracker 3.40 0067  02.08.2006

@<TRIPOS>MOLECULE
ASD08070622
  46   47    0    0    0
SMALL
NO_CHARGES


@<TRIPOS>ATOM
   1 O1            -0.0161     1.3397     0.0094 O.3     
   2 C2             0.0021    -0.0041     0.0020 C.2     
   3 N3             1.2336    -0.4380    -0.0121 N.2     
   4 C4             2.0743     0.6342    -0.0143 C.ar    
   5 C5             1.2618     1.7803    -0.0004 C.ar    
   6 C6             3.4594     0.7675    -0.0269 C.ar    
   7 C7             4.0283     2.0388    -0.0255 C.ar    
   8 C8             3.2094     3.1738    -0.0111 C.ar    
   9 C9             1.8395     3.0421     0.0008 C.ar    
  10 C10            5.4977     2.1894    -0.0387 C.2     
  11 O11            6.2096     1.2040    -0.0508 O.2     
  12 N12            6.0491     3.4192    -0.0373 N.am    
  13 C13            7.5064     3.5686    -0.0504 C.3     
  14 C14            7.8746     4.9244    -0.6563 C.3     
  15 C15            7.4511     4.9581    -2.1262 C.3     
  16 C16            7.8193     6.3139    -2.7321 C.3     
  17 C17            8.0402     3.4878     1.3811 C.3     
  18 C18            7.7818     2.0886     1.9436 C.3     
  19 C19            8.3157     2.0078     3.3752 C.3     
  20 O20           -1.0959    -0.7926     0.0087 O.3     
  21 C21           -2.3654    -0.1369     0.0242 C.3     
  22 C22           -3.4805    -1.1845     0.0298 C.3     
  23 H23            4.0895    -0.1096    -0.0372 H       
  24 H24            3.6547     4.1578    -0.0093 H       
  25 H25            1.2132     3.9220     0.0115 H       
  26 H26            5.4810     4.2054    -0.0277 H       
  27 H27            7.9480     2.7714    -0.6484 H       
  28 H28            7.3614     5.7171    -0.1120 H       
  29 H29            8.9520     5.0735    -0.5852 H       
  30 H30            7.9643     4.1654    -2.6705 H       
  31 H31            6.3737     4.8089    -2.1973 H       
  32 H32            7.3061     7.1066    -2.1877 H       
  33 H33            8.8967     6.4631    -2.6609 H       
  34 H34            7.5176     6.3379    -3.7792 H       
  35 H35            9.1118     3.6872     1.3811 H       
  36 H36            7.5330     4.2277     2.0003 H       
  37 H37            6.7102     1.8893     1.9437 H       
  38 H38            8.2890     1.3487     1.3244 H       
  39 H39            9.3873     2.2072     3.3751 H       
  40 H40            7.8085     2.7477     3.9944 H       
  41 H41            8.1316     1.0110     3.7759 H       
  42 H42           -2.4438     0.4819     0.9181 H       
  43 H43           -2.4610     0.4909    -0.8617 H       
  44 H44           -3.4021    -1.8033    -0.8641 H       
  45 H45           -3.3849    -1.8122     0.9157 H       
  46 H46           -4.4489    -0.6843     0.0416 H       
@<TRIPOS>BOND
   1    1    2 1
   2    1    5 1
   3    2    3 2
   4    2   20 1
   5    3    4 1
   6    4    5 ar
   7    4    6 ar
   8    5    9 ar
   9    6    7 ar
  10    6   23 1
  11    7    8 ar
  12    7   10 1
  13    8    9 ar
  14    8   24 1
  15    9   25 1
  16   10   11 2
  17   10   12 am
  18   12   13 1
  19   12   26 1
  20   13   14 1
  21   13   17 1
  22   13   27 1
  23   14   15 1
  24   14   28 1
  25   14   29 1
  26   15   16 1
  27   15   30 1
  28   15   31 1
  29   16   32 1
  30   16   33 1
  31   16   34 1
  32   17   18 1
  33   17   35 1
  34   17   36 1
  35   18   19 1
  36   18   37 1
  37   18   38 1
  38   19   39 1
  39   19   40 1
  40   19   41 1
  41   20   21 1
  42   21   22 1
  43   21   42 1
  44   21   43 1
  45   22   44 1
  46   22   45 1
  47   22   46 1

#	End of record

