#	Name: ASD01815973
#	Creating user name:	WinNT
#	Creation time:	15. 06. 2019 19:34

#	Modifying user name:	WinNT
#	Modification time:	15. 06. 2019 19:34

#	Program:	/corina/corina34_cracker 3.40 0067  02.08.2006

@<TRIPOS>MOLECULE
ASD01815973
  42   46    0    0    0
SMALL
NO_CHARGES


@<TRIPOS>ATOM
   1 C1            -0.0167     1.3813     0.0096 C.ar    
   2 C2             0.0021    -0.0041     0.0020 C.ar    
   3 C3             1.1984    -0.6909    -0.0131 C.ar    
   4 C4             2.4015     0.0059    -0.0209 C.ar    
   5 C5             2.3790     1.4106    -0.0132 C.ar    
   6 C6             1.1663     2.0916     0.0022 C.ar    
   7 N7             3.6053    -0.6772    -0.0356 N.pl3   
   8 C8             4.7970    -0.0586    -0.0433 C.2     
   9 C9             4.9000     1.3103    -0.0373 C.2     
  10 C10            3.6670     2.1301    -0.0217 C.2     
  11 C11            5.9971     2.2729    -0.0432 C.2     
  12 N12            5.4245     3.4960    -0.0323 N.am    
  13 N13            4.0323     3.3799    -0.0195 N.2     
  14 C14            6.1264     4.7082    -0.0333 C.ar    
  15 O15            7.1914     2.0229    -0.0548 O.2     
  16 C16            3.5779    -2.1419    -0.0427 C.3     
  17 C17            3.5552    -2.6371    -1.4659 C.ar    
  18 N18            4.6966    -2.8693    -2.0825 N.ar    
  19 C19            4.7158    -3.3050    -3.3319 C.ar    
  20 C20            3.5149    -3.5164    -3.9907 C.ar    
  21 C21            2.3353    -3.2610    -3.3092 C.ar    
  22 N22            2.3944    -2.8315    -2.0589 N.ar    
  23 C23            6.5546     5.2634    -1.2317 C.ar    
  24 C24            7.2466     6.4588    -1.2297 C.ar    
  25 C25            7.5142     7.1036    -0.0359 C.ar    
  26 C26            7.0900     6.5550     1.1603 C.ar    
  27 C27            6.3912     5.3614     1.1656 C.ar    
  28 F28            5.9763     4.8253     2.3342 F       
  29 H29           -0.9602     1.9068     0.0170 H       
  30 H30           -0.9289    -0.5516     0.0083 H       
  31 H31            1.2004    -1.7709    -0.0186 H       
  32 H32            1.1506     3.1715     0.0077 H       
  33 H33            5.6983    -0.6536    -0.0540 H       
  34 H34            4.4657    -2.5244     0.4609 H       
  35 H35            2.6861    -2.4912     0.4778 H       
  36 H36            5.6546    -3.4930    -3.8316 H       
  37 H37            3.4986    -3.8712    -5.0106 H       
  38 H38            1.3808    -3.4140    -3.7908 H       
  39 H39            6.3471     4.7607    -2.1648 H       
  40 H40            7.5796     6.8905    -2.1620 H       
  41 H41            8.0561     8.0378    -0.0379 H       
  42 H42            7.3009     7.0609     2.0909 H       
@<TRIPOS>BOND
   1    1    2 ar
   2    1    6 ar
   3    1   29 1
   4    2    3 ar
   5    2   30 1
   6    3    4 ar
   7    3   31 1
   8    4    5 ar
   9    4    7 1
  10    5    6 ar
  11    5   10 1
  12    6   32 1
  13    7    8 1
  14    7   16 1
  15    8    9 2
  16    8   33 1
  17    9   10 1
  18    9   11 1
  19   10   13 2
  20   11   12 am
  21   11   15 2
  22   12   13 1
  23   12   14 1
  24   14   23 ar
  25   14   27 ar
  26   16   17 1
  27   16   34 1
  28   16   35 1
  29   17   18 ar
  30   17   22 ar
  31   18   19 ar
  32   19   20 ar
  33   19   36 1
  34   20   21 ar
  35   20   37 1
  36   21   22 ar
  37   21   38 1
  38   23   24 ar
  39   23   39 1
  40   24   25 ar
  41   24   40 1
  42   25   26 ar
  43   25   41 1
  44   26   27 ar
  45   26   42 1
  46   27   28 1

#	End of record

