#	Name: ASD01140364
#	Creating user name:	WinNT
#	Creation time:	15. 06. 2019 19:00

#	Modifying user name:	WinNT
#	Modification time:	15. 06. 2019 19:00

#	Program:	/corina/corina34_cracker 3.40 0067  02.08.2006

@<TRIPOS>MOLECULE
ASD01140364
  26   29    0    0    0
SMALL
NO_CHARGES


@<TRIPOS>ATOM
   1 N1            -0.0165     1.3640     0.0095 N.pl3   
   2 C2             0.0021    -0.0041     0.0020 C.2     
   3 C3             1.2440    -0.8627    -0.0465 C.3     
   4 N4             1.9826    -0.4789    -1.2555 N.pl3   
   5 C5             2.4123     0.7683    -1.5429 C.2     
   6 C6             2.2381     1.9848    -0.7241 C.ar    
   7 C7             1.0753     2.2369     0.0038 C.ar    
   8 C8             3.2889     2.9094    -0.6870 C.ar    
   9 C9             3.1783     4.0587     0.0663 C.ar    
  10 C10            2.0242     4.3043     0.7917 C.ar    
  11 C11            0.9799     3.4017     0.7610 C.ar    
  12 N12            2.3731    -1.3038    -2.3140 N.2     
  13 C13            3.0040    -0.5402    -3.1709 C.2     
  14 N14            3.0293     0.7075    -2.7099 N.2     
  15 C15           -1.3261     1.7348     0.0355 C.2     
  16 N16           -2.0646     0.6583     0.0556 N.2     
  17 C17           -1.2722    -0.4259     0.0358 C.2     
  18 Cl18          -1.8015    -2.0792     0.0511 Cl      
  19 Cl19           4.4864     5.1993     0.1054 Cl      
  20 H20            1.8563    -0.6816     0.8368 H       
  21 H21            0.9666    -1.9156    -0.0986 H       
  22 H22            4.1906     2.7212    -1.2509 H       
  23 H23            1.9405     5.2047     1.3822 H       
  24 H24            0.0830     3.5997     1.3291 H       
  25 H25            3.4356    -0.8711    -4.1040 H       
  26 H26           -1.6931     2.7505     0.0393 H       
@<TRIPOS>BOND
   1    1    2 1
   2    1    7 1
   3    1   15 1
   4    2    3 1
   5    2   17 2
   6    3    4 1
   7    3   20 1
   8    3   21 1
   9    4    5 1
  10    4   12 1
  11    5    6 1
  12    5   14 2
  13    6    7 ar
  14    6    8 ar
  15    7   11 ar
  16    8    9 ar
  17    8   22 1
  18    9   10 ar
  19    9   19 1
  20   10   11 ar
  21   10   23 1
  22   11   24 1
  23   12   13 2
  24   13   14 1
  25   13   25 1
  26   15   16 2
  27   15   26 1
  28   16   17 1
  29   17   18 1

#	End of record

