#	Name: ASD04880473
#	Creating user name:	WinNT
#	Creation time:	15. 06. 2019 20:53

#	Modifying user name:	WinNT
#	Modification time:	15. 06. 2019 20:53

#	Program:	/corina/corina34_cracker 3.40 0067  02.08.2006

@<TRIPOS>MOLECULE
ASD04880473
  54   56    0    0    0
SMALL
NO_CHARGES


@<TRIPOS>ATOM
   1 C1             0.4459     1.0472    -0.4534 C.ar    
   2 C2             0.3598    -0.3402    -0.3614 C.ar    
   3 C3            -0.8774    -0.9535    -0.2997 C.ar    
   4 C4            -2.0398    -0.1787    -0.3294 C.ar    
   5 C5            -1.9457     1.2124    -0.4213 C.ar    
   6 C6            -0.7078     1.8173    -0.4772 C.ar    
   7 O7             1.6636     1.6484    -0.5144 O.3     
   8 C8             1.6792     3.0743    -0.6077 C.3     
   9 C9            -3.3621    -0.8272    -0.2644 C.2     
  10 C10           -4.6862    -0.1023    -0.1793 C.3     
  11 C11           -5.7288    -1.2370    -0.1371 C.3     
  12 N12           -4.9116    -2.4591    -0.2010 N.am    
  13 N13           -3.5677    -2.0990    -0.2770 N.2     
  14 C14           -5.3859    -3.7206    -0.1923 C.2     
  15 O15           -6.5722    -3.9216    -0.0369 O.2     
  16 C16           -4.4427    -4.8815    -0.3755 C.3     
  17 C17           -4.7780    -5.6042    -1.6547 C.ar    
  18 O18           -3.0994    -4.3983    -0.4395 O.3     
  19 C19           -5.7520    -6.5880    -1.6594 C.ar    
  20 C20           -2.1258    -5.3204     0.0544 C.3     
  21 O21            1.4932    -1.0913    -0.3327 O.3     
  22 C22            1.3305    -2.5078    -0.2374 C.3     
  23 C23           -6.0591    -7.2512    -2.8356 C.ar    
  24 C24           -5.3932    -6.9305    -4.0031 C.ar    
  25 C25           -4.4206    -5.9477    -3.9972 C.ar    
  26 C26           -4.1172    -5.2811    -2.8250 C.ar    
  27 F27           -6.4021    -6.9010    -0.5172 F       
  28 C28           -6.5244    -1.1888     1.1688 C.3     
  29 C29           -6.6659    -1.1522    -1.3436 C.3     
  30 H30           -0.9455    -2.0290    -0.2290 H       
  31 H31           -2.8424     1.8139    -0.4449 H       
  32 H32           -0.6364     2.8926    -0.5479 H       
  33 H33            1.1536     3.3851    -1.5105 H       
  34 H34            1.1854     3.5009     0.2654 H       
  35 H35            2.7107     3.4244    -0.6490 H       
  36 H36           -4.7363     0.4970     0.7298 H       
  37 H37           -4.8370     0.5230    -1.0593 H       
  38 H38           -4.5425    -5.5671     0.4660 H       
  39 H39           -2.3369    -5.5464     1.0996 H       
  40 H40           -2.1654    -6.2389    -0.5311 H       
  41 H41           -1.1325    -4.8792    -0.0285 H       
  42 H42            0.7946    -2.7511     0.6801 H       
  43 H43            0.7628    -2.8669    -1.0958 H       
  44 H44            2.3099    -2.9860    -0.2237 H       
  45 H45           -6.8185    -8.0191    -2.8403 H       
  46 H46           -5.6323    -7.4479    -4.9204 H       
  47 H47           -3.9004    -5.6980    -4.9101 H       
  48 H48           -3.3574    -4.5136    -2.8216 H       
  49 H49           -7.0408    -0.2319     1.2447 H       
  50 H50           -7.2550    -1.9977     1.1792 H       
  51 H51           -5.8444    -1.3026     2.0130 H       
  52 H52           -6.0850    -1.2404    -2.2617 H       
  53 H53           -7.3943    -1.9616    -1.2954 H       
  54 H54           -7.1859    -0.1943    -1.3332 H       
@<TRIPOS>BOND
   1    1    2 ar
   2    1    7 1
   3    1    6 ar
   4    2    3 ar
   5    2   21 1
   6    3    4 ar
   7    3   30 1
   8    4    5 ar
   9    4    9 1
  10    5    6 ar
  11    5   31 1
  12    6   32 1
  13    7    8 1
  14    8   33 1
  15    8   34 1
  16    8   35 1
  17    9   10 1
  18    9   13 2
  19   10   11 1
  20   10   36 1
  21   10   37 1
  22   11   12 1
  23   11   28 1
  24   11   29 1
  25   12   13 1
  26   12   14 am
  27   14   15 2
  28   14   16 1
  29   16   17 1
  30   16   18 1
  31   16   38 1
  32   17   19 ar
  33   17   26 ar
  34   18   20 1
  35   19   23 ar
  36   19   27 1
  37   20   39 1
  38   20   40 1
  39   20   41 1
  40   21   22 1
  41   22   42 1
  42   22   43 1
  43   22   44 1
  44   23   24 ar
  45   23   45 1
  46   24   25 ar
  47   24   46 1
  48   25   26 ar
  49   25   47 1
  50   26   48 1
  51   28   49 1
  52   28   50 1
  53   28   51 1
  54   29   52 1
  55   29   53 1
  56   29   54 1

#	End of record

