#	Name: ASD08830056
#	Creating user name:	WinNT
#	Creation time:	15. 06. 2019 21:19

#	Modifying user name:	WinNT
#	Modification time:	15. 06. 2019 21:19

#	Program:	/corina/corina34_cracker 3.40 0067  02.08.2006

@<TRIPOS>MOLECULE
ASD08830056
  54   57    0    0    0
SMALL
NO_CHARGES


@<TRIPOS>ATOM
   1 C1            -0.0172     1.4144     0.0098 C.ar    
   2 C2             0.0021    -0.0041     0.0020 C.ar    
   3 C3             1.1959     2.1287     0.0021 C.ar    
   4 C4             2.3769     1.4621    -0.0133 C.ar    
   5 C5             2.4108     0.0535    -0.0217 C.ar    
   6 C6             1.2315    -0.6786    -0.0139 C.ar    
   7 C7             3.7045    -0.6459    -0.0393 C.2     
   8 C8             4.9879     0.1439    -0.0483 C.3     
   9 C9             6.1781    -0.8173    -0.0663 C.3     
  10 N10            7.4292    -0.0475    -0.0751 N.3     
  11 O11            3.7384    -1.8581    -0.0465 O.2     
  12 C12            8.5873    -0.9229     0.1458 C.3     
  13 C13           -1.2511     2.0843     0.0194 C.ar    
  14 C14           -1.2141    -0.7105     0.0099 C.ar    
  15 C15           -2.3907    -0.0259     0.0249 C.ar    
  16 C16           -2.4091     1.3672     0.0210 C.ar    
  17 C17            9.8771    -0.1148    -0.0141 C.3     
  18 C18            9.8822     1.0346     0.9975 C.3     
  19 C19            7.3868     1.0368     0.9143 C.3     
  20 C20           11.1408     1.8823     0.8019 C.3     
  21 C21           11.2069     2.9384     1.8749 C.ar    
  22 C22            8.6408     1.9034     0.7773 C.3     
  23 C23           11.8519     2.6720     3.0681 C.ar    
  24 C24           10.6274     4.1755     1.6636 C.ar    
  25 C25           10.6881     5.1443     2.6479 C.ar    
  26 C26           11.3278     4.8758     3.8435 C.ar    
  27 C27           11.9125     3.6407     4.0524 C.ar    
  28 H28            1.1860     3.2087     0.0080 H       
  29 H29            3.3029     2.0179    -0.0195 H       
  30 H30            1.2604    -1.7581    -0.0203 H       
  31 H31            5.0187     0.7770    -0.9350 H       
  32 H32            5.0375     0.7668     0.8448 H       
  33 H33            6.1473    -1.4504     0.8205 H       
  34 H34            6.1285    -1.4403    -0.9594 H       
  35 H35            8.5416    -1.3386     1.1524 H       
  36 H36            8.5740    -1.7336    -0.5827 H       
  37 H37           -1.2819     3.1638     0.0257 H       
  38 H38           -1.2146    -1.7904     0.0038 H       
  39 H39           -3.3233    -0.5705     0.0306 H       
  40 H40           -3.3559     1.8865     0.0335 H       
  41 H41           10.7362    -0.7613     0.1653 H       
  42 H42            9.9301     0.2897    -1.0248 H       
  43 H43            9.8696     0.6294     2.0093 H       
  44 H44            6.5016     1.6495     0.7439 H       
  45 H45            7.3468     0.6120     1.9173 H       
  46 H46           12.0222     1.2442     0.8654 H       
  47 H47           11.1082     2.3605    -0.1771 H       
  48 H48            8.6165     2.6989     1.5221 H       
  49 H49            8.6743     2.3397    -0.2210 H       
  50 H50           12.3082     1.7068     3.2315 H       
  51 H51           10.1276     4.3853     0.7295 H       
  52 H52           10.2360     6.1111     2.4826 H       
  53 H53           11.3755     5.6328     4.6123 H       
  54 H54           12.4124     3.4309     4.9865 H       
@<TRIPOS>BOND
   1    1    2 ar
   2    1    3 ar
   3    1   13 ar
   4    2   14 ar
   5    2    6 ar
   6    3    4 ar
   7    3   28 1
   8    4    5 ar
   9    4   29 1
  10    5    6 ar
  11    5    7 1
  12    6   30 1
  13    7    8 1
  14    7   11 2
  15    8    9 1
  16    8   31 1
  17    8   32 1
  18    9   10 1
  19    9   33 1
  20    9   34 1
  21   10   12 1
  22   10   19 1
  23   12   17 1
  24   12   35 1
  25   12   36 1
  26   13   16 ar
  27   13   37 1
  28   14   15 ar
  29   14   38 1
  30   15   16 ar
  31   15   39 1
  32   16   40 1
  33   17   18 1
  34   17   41 1
  35   17   42 1
  36   18   20 1
  37   18   22 1
  38   18   43 1
  39   19   22 1
  40   19   44 1
  41   19   45 1
  42   20   21 1
  43   20   46 1
  44   20   47 1
  45   21   23 ar
  46   21   24 ar
  47   22   48 1
  48   22   49 1
  49   23   27 ar
  50   23   50 1
  51   24   25 ar
  52   24   51 1
  53   25   26 ar
  54   25   52 1
  55   26   27 ar
  56   26   53 1
  57   27   54 1

#	End of record

