#	Name: ASD03731751
#	Creating user name:	WinNT
#	Creation time:	15. 06. 2019 20:46

#	Modifying user name:	WinNT
#	Modification time:	15. 06. 2019 20:46

#	Program:	/corina/corina34_cracker 3.40 0067  02.08.2006

@<TRIPOS>MOLECULE
ASD03731751
  34   35    0    0    0
SMALL
NO_CHARGES


@<TRIPOS>ATOM
   1 C1             0.7599     1.4151    -0.4030 C.2     
   2 C2             0.5750    -0.0458    -0.3023 C.ar    
   3 C3             1.5338    -0.9116    -0.8351 C.ar    
   4 C4             1.3579    -2.2739    -0.7388 C.ar    
   5 C5             0.2282    -2.7882    -0.1128 C.ar    
   6 C6            -0.7278    -1.9302     0.4185 C.ar    
   7 C7            -0.5564    -0.5667     0.3312 C.ar    
   8 O8             1.7473     1.8667    -0.9501 O.2     
   9 N9            -0.1686     2.2486     0.1066 N.am    
  10 S10            0.0388     3.8877    -0.0064 S.o2    
  11 O11           -1.0998     4.4309     0.6477 O.2     
  12 O12            1.3487     4.1107     0.4971 O.2     
  13 C13           -0.0258     4.2305    -1.7865 C.3     
  14 O14            0.0581    -4.1314    -0.0206 O.3     
  15 C15            0.5836    -4.7676     1.0566 C.ar    
  16 C16            0.5360    -6.1665     1.1407 C.ar    
  17 C17            1.0807    -6.8099     2.2543 C.ar    
  18 C18            1.6604    -6.0680     3.2615 C.ar    
  19 C19            1.7049    -4.6867     3.1747 C.ar    
  20 C20            1.1750    -4.0380     2.0761 C.ar    
  21 C21           -0.0680    -6.9310     0.0913 C.1     
  22 N22           -0.5472    -7.5374    -0.7413 N.1     
  23 H23            2.4113    -0.5128    -1.3222 H       
  24 H24            2.0985    -2.9437    -1.1503 H       
  25 H25           -1.6042    -2.3335     0.9041 H       
  26 H26           -1.2974     0.0993     0.7481 H       
  27 H27           -0.9584     1.8884     0.5395 H       
  28 H28           -0.9908     3.9141    -2.1827 H       
  29 H29            0.1036     5.2995    -1.9556 H       
  30 H30            0.7709     3.6838    -2.2910 H       
  31 H31            1.0476    -7.8870     2.3265 H       
  32 H32            2.0814    -6.5664     4.1221 H       
  33 H33            2.1606    -4.1134     3.9684 H       
  34 H34            1.2176    -2.9606     2.0136 H       
@<TRIPOS>BOND
   1    1    2 1
   2    1    8 2
   3    1    9 am
   4    2    3 ar
   5    2    7 ar
   6    3    4 ar
   7    3   23 1
   8    4    5 ar
   9    4   24 1
  10    5    6 ar
  11    5   14 1
  12    6    7 ar
  13    6   25 1
  14    7   26 1
  15    9   10 am
  16    9   27 1
  17   10   11 2
  18   10   12 2
  19   10   13 1
  20   13   28 1
  21   13   29 1
  22   13   30 1
  23   14   15 1
  24   15   16 ar
  25   15   20 ar
  26   16   17 ar
  27   16   21 1
  28   17   18 ar
  29   17   31 1
  30   18   19 ar
  31   18   32 1
  32   19   20 ar
  33   19   33 1
  34   20   34 1
  35   21   22 3

#	End of record

