#	Name: ASD01208038
#	Creating user name:	WinNT
#	Creation time:	15. 06. 2019 19:09

#	Modifying user name:	WinNT
#	Modification time:	15. 06. 2019 19:09

#	Program:	/corina/corina34_cracker 3.40 0067  02.08.2006

@<TRIPOS>MOLECULE
ASD01208038
  57   60    0    0    0
SMALL
NO_CHARGES


@<TRIPOS>ATOM
   1 C1            -0.0845     1.4334     0.0281 C.ar    
   2 C2             0.0177     0.0505    -0.0124 C.ar    
   3 C3            -1.1257    -0.7355     0.0268 C.ar    
   4 C4            -2.3742    -0.1414     0.1063 C.ar    
   5 C5            -2.4816     1.2497     0.1474 C.ar    
   6 C6            -1.3289     2.0357     0.1138 C.ar    
   7 C7            -3.8115     1.8880     0.2321 C.2     
   8 C8            -4.0510     3.2313     0.2783 C.2     
   9 N9            -5.0144     1.2323     0.2718 N.pl3   
  10 C10           -6.0179     2.1671     0.3486 C.2     
  11 C11           -5.4343     3.4151     0.3536 C.2     
  12 O12            1.0382     2.1982    -0.0106 O.3     
  13 C13            0.8568     3.6134    -0.0896 C.3     
  14 C14            2.0912     4.2509    -0.7304 C.3     
  15 O15            3.2220     4.0618     0.1225 O.3     
  16 C16            0.6615     4.1819     1.3174 C.3     
  17 O17           -1.0199    -2.0896    -0.0132 O.3     
  18 C18           -1.4881    -2.7329    -1.1123 C.ar    
  19 C19           -1.9382    -2.0005    -2.2051 C.ar    
  20 C20           -1.5110    -4.1227    -1.1449 C.ar    
  21 C21           -1.9852    -4.7793    -2.2582 C.ar    
  22 C22           -2.4441    -4.0466    -3.3568 C.ar    
  23 C23           -2.4144    -2.6494    -3.3220 C.ar    
  24 C24           -2.9524    -4.7458    -4.5516 C.2     
  25 O25           -3.3943    -4.0378    -5.6095 O.3     
  26 O26           -2.9729    -5.9603    -4.5820 O.2     
  27 C27           -7.4600     1.8857     0.4110 C.2     
  28 C28            4.4339     4.6229    -0.3860 C.3     
  29 N29           -8.4047     2.7833     0.4838 N.2     
  30 C30           -9.6412     2.3440     0.5315 C.2     
  31 C31           -9.7902     1.0157     0.4997 C.2     
  32 S32           -8.1909     0.2828     0.3920 S.3     
  33 C33           -3.8805    -4.7922    -6.7509 C.3     
  34 H34            0.9898    -0.4159    -0.0751 H       
  35 H35           -3.2635    -0.7536     0.1361 H       
  36 H36           -1.4075     3.1124     0.1458 H       
  37 H37           -3.3050     4.0120     0.2599 H       
  38 H38           -5.1365     0.2702     0.2490 H       
  39 H39           -5.9511     4.3620     0.4061 H       
  40 H40           -0.0220     3.8338    -0.6957 H       
  41 H41            2.2821     3.7826    -1.6960 H       
  42 H42            1.9172     5.3176    -0.8720 H       
  43 H43            0.5231     5.2614     1.2571 H       
  44 H44           -0.2179     3.7277     1.7739 H       
  45 H45            1.5403     3.9615     1.9235 H       
  46 H46           -1.9146    -0.9212    -2.1775 H       
  47 H47           -1.1560    -4.6880    -0.2959 H       
  48 H48           -2.0024    -5.8589    -2.2829 H       
  49 H49           -2.7683    -2.0797    -4.1686 H       
  50 H50            4.6734     4.1623    -1.3444 H       
  51 H51            4.3085     5.6973    -0.5204 H       
  52 H52            5.2442     4.4370     0.3190 H       
  53 H53          -10.4858     3.0143     0.5931 H       
  54 H54          -10.7294     0.4834     0.5301 H       
  55 H55           -3.0807    -5.4251    -7.1355 H       
  56 H56           -4.7207    -5.4148    -6.4437 H       
  57 H57           -4.2050    -4.1029    -7.5304 H       
@<TRIPOS>BOND
   1    1    2 ar
   2    1   12 1
   3    1    6 ar
   4    2    3 ar
   5    2   34 1
   6    3    4 ar
   7    3   17 1
   8    4    5 ar
   9    4   35 1
  10    5    6 ar
  11    5    7 1
  12    6   36 1
  13    7    8 2
  14    7    9 1
  15    8   11 1
  16    8   37 1
  17    9   10 1
  18    9   38 1
  19   10   11 2
  20   10   27 1
  21   11   39 1
  22   12   13 1
  23   13   14 1
  24   13   16 1
  25   13   40 1
  26   14   15 1
  27   14   41 1
  28   14   42 1
  29   15   28 1
  30   16   43 1
  31   16   44 1
  32   16   45 1
  33   17   18 1
  34   18   19 ar
  35   18   20 ar
  36   19   23 ar
  37   19   46 1
  38   20   21 ar
  39   20   47 1
  40   21   22 ar
  41   21   48 1
  42   22   23 ar
  43   22   24 1
  44   23   49 1
  45   24   25 1
  46   24   26 2
  47   25   33 1
  48   27   29 2
  49   27   32 1
  50   28   50 1
  51   28   51 1
  52   28   52 1
  53   29   30 1
  54   30   31 2
  55   30   53 1
  56   31   32 1
  57   31   54 1
  58   33   55 1
  59   33   56 1
  60   33   57 1

#	End of record

