#	Name: ASD01811403
#	Creating user name:	WinNT
#	Creation time:	15. 06. 2019 19:26

#	Modifying user name:	WinNT
#	Modification time:	15. 06. 2019 19:26

#	Program:	/corina/corina34_cracker 3.40 0067  02.08.2006

@<TRIPOS>MOLECULE
ASD01811403
  63   66    0    0    0
SMALL
NO_CHARGES


@<TRIPOS>ATOM
   1 N1            -0.0131     1.3808    -0.4648 N.am    
   2 C2             0.1730     0.3072    -1.2580 C.2     
   3 O3             1.2647     0.0968    -1.7501 O.2     
   4 N4            -0.8512    -0.5331    -1.5059 N.am    
   5 C5            -0.6489    -1.7001    -2.3681 C.3     
   6 C6            -1.9592    -2.4815    -2.4844 C.3     
   7 C7            -3.0027    -1.6235    -3.2027 C.3     
   8 C8            -1.7184    -3.7653    -3.2812 C.3     
   9 C9             1.0730     2.1948    -0.1226 C.ar    
  10 C10            0.8858     3.5584     0.0704 C.ar    
  11 C11            1.9550     4.3666     0.4080 C.ar    
  12 C12            3.2159     3.8249     0.5556 C.ar    
  13 C13            3.4143     2.4566     0.3644 C.ar    
  14 C14            2.3339     1.6401     0.0292 C.ar    
  15 C15           -0.4876     4.1579    -0.0893 C.3     
  16 C16            4.7640     1.8737     0.5214 C.2     
  17 O17            4.9137     0.8513     1.1616 O.2     
  18 C18            7.6833     3.1107    -2.0753 C.3     
  19 O19            8.4971     4.0357    -1.3368 O.3     
  20 C20            9.8043     3.9356    -1.9322 C.3     
  21 C21            9.5764     3.5291    -3.3699 C.ar    
  22 C22           10.3772     3.5770    -4.4889 C.ar    
  23 C23            9.8866     3.1202    -5.7142 C.ar    
  24 C24            8.5861     2.6177    -5.7950 C.ar    
  25 C25            7.7941     2.5746    -4.6660 C.ar    
  26 C26            8.2849     3.0273    -3.4565 C.ar    
  27 N27            5.8283     2.4759    -0.0453 N.am    
  28 C28            7.1595     1.8575     0.0192 C.3     
  29 C29            7.7168     1.7392    -1.4034 C.3     
  30 C30            6.2487     3.6284    -2.1549 C.3     
  31 C31            5.6779     3.7623    -0.7390 C.3     
  32 C32           10.7133     3.1673    -6.8826 C.1     
  33 N33           11.3691     3.2046    -7.8094 N.1     
  34 H34           -0.9003     1.5917    -0.1343 H       
  35 H35           -1.7222    -0.3653    -1.1133 H       
  36 H36           -0.3336    -1.3702    -3.3580 H       
  37 H37            0.1196    -2.3416    -1.9370 H       
  38 H38           -2.3208    -2.7349    -1.4878 H       
  39 H39           -2.6411    -1.3701    -4.1992 H       
  40 H40           -3.9361    -2.1802    -3.2855 H       
  41 H41           -3.1742    -0.7090    -2.6350 H       
  42 H42           -0.9750    -4.3765    -2.7695 H       
  43 H43           -2.6519    -4.3219    -3.3641 H       
  44 H44           -1.3568    -3.5119    -4.2778 H       
  45 H45            1.8035     5.4255     0.5563 H       
  46 H46            4.0490     4.4598     0.8187 H       
  47 H47            2.4805     0.5800    -0.1157 H       
  48 H48           -1.0074     4.1354     0.8685 H       
  49 H49           -0.3964     5.1895    -0.4292 H       
  50 H50           -1.0522     3.5822    -0.8228 H       
  51 H51           10.3108     4.8999    -1.8904 H       
  52 H52           10.3947     3.1780    -1.4168 H       
  53 H53           11.3819     3.9672    -4.4194 H       
  54 H54            8.2008     2.2637    -6.7398 H       
  55 H55            6.7882     2.1865    -4.7281 H       
  56 H56            7.8225     2.4792     0.6209 H       
  57 H57            7.0807     0.8658     0.4645 H       
  58 H58            7.1082     1.0389    -1.9755 H       
  59 H59            8.7448     1.3791    -1.3626 H       
  60 H60            6.2402     4.6025    -2.6441 H       
  61 H61            5.6406     2.9282    -2.7276 H       
  62 H62            4.6219     4.0265    -0.7942 H       
  63 H63            6.2224     4.5355    -0.1971 H       
@<TRIPOS>BOND
   1    1    2 am
   2    1    9 1
   3    1   34 1
   4    2    3 2
   5    2    4 am
   6    4    5 1
   7    4   35 1
   8    5    6 1
   9    5   36 1
  10    5   37 1
  11    6    7 1
  12    6    8 1
  13    6   38 1
  14    7   39 1
  15    7   40 1
  16    7   41 1
  17    8   42 1
  18    8   43 1
  19    8   44 1
  20    9   10 ar
  21    9   14 ar
  22   10   11 ar
  23   10   15 1
  24   11   12 ar
  25   11   45 1
  26   12   13 ar
  27   12   46 1
  28   13   14 ar
  29   13   16 1
  30   14   47 1
  31   15   48 1
  32   15   49 1
  33   15   50 1
  34   16   17 2
  35   16   27 am
  36   18   19 1
  37   18   26 1
  38   18   29 1
  39   18   30 1
  40   19   20 1
  41   20   21 1
  42   20   51 1
  43   20   52 1
  44   21   22 ar
  45   21   26 ar
  46   22   23 ar
  47   22   53 1
  48   23   24 ar
  49   23   32 1
  50   24   25 ar
  51   24   54 1
  52   25   26 ar
  53   25   55 1
  54   27   28 1
  55   27   31 1
  56   28   29 1
  57   28   56 1
  58   28   57 1
  59   29   58 1
  60   29   59 1
  61   30   31 1
  62   30   60 1
  63   30   61 1
  64   31   62 1
  65   31   63 1
  66   32   33 3

#	End of record

