#	Name: ASD09740272
#	Creating user name:	WinNT
#	Creation time:	15. 06. 2019 21:23

#	Modifying user name:	WinNT
#	Modification time:	15. 06. 2019 21:23

#	Program:	/corina/corina34_cracker 3.40 0067  02.08.2006

@<TRIPOS>MOLECULE
ASD09740272
  41   43    0    0    0
SMALL
NO_CHARGES


@<TRIPOS>ATOM
   1 N1            -0.0144     1.2085     0.0087 N.2     
   2 O2             0.0021    -0.0041     0.0020 O.3     
   3 C3             1.2062     1.6798    -0.0004 C.2     
   4 N4             2.0457     0.6234    -0.0141 N.2     
   5 C5             1.2698    -0.4440    -0.0125 C.2     
   6 C6             1.7125    -1.8547    -0.0238 C.ar    
   7 C7             1.5955     3.1123     0.0031 C.ar    
   8 C8             0.7703    -2.8835    -0.0204 C.ar    
   9 C9             1.1893    -4.2037    -0.0310 C.ar    
  10 C10            2.5438    -4.5036    -0.0446 C.ar    
  11 C11            3.4841    -3.4834    -0.0476 C.ar    
  12 C12            3.0735    -2.1606    -0.0438 C.ar    
  13 C13            0.6161     4.1029     0.0178 C.ar    
  14 C14            0.9837     5.4333     0.0210 C.ar    
  15 C15            2.3217     5.7837     0.0091 C.ar    
  16 C16            3.2982     4.8042    -0.0060 C.ar    
  17 C17            2.9418     3.4708    -0.0025 C.ar    
  18 O18            4.8097    -3.7825    -0.0605 O.3     
  19 C19            6.6860    -5.3055    -0.0841 C.3     
  20 C20            5.1623    -5.1673    -0.0704 C.3     
  21 O21            0.2723    -5.2067    -0.0277 O.3     
  22 C22           -0.3973    -7.5288    -0.0335 C.3     
  23 C23            0.7741    -6.5447    -0.0392 C.3     
  24 H24           -0.2843    -2.6510    -0.0091 H       
  25 H25            2.8672    -5.5340    -0.0525 H       
  26 H26            3.8061    -1.3670    -0.0465 H       
  27 H27           -0.4289     3.8304     0.0264 H       
  28 H28            0.2252     6.2020     0.0324 H       
  29 H29            2.6050     6.8259     0.0113 H       
  30 H30            4.3415     5.0833    -0.0155 H       
  31 H31            3.7050     2.7067    -0.0140 H       
  32 H32            6.9549    -6.3618    -0.0917 H       
  33 H33            7.0866    -4.8222    -0.9752 H       
  34 H34            7.1019    -4.8311     0.8047 H       
  35 H35            4.7617    -5.6506     0.8207 H       
  36 H36            4.7464    -5.6418    -0.9592 H       
  37 H37           -1.0142    -7.3646    -0.9170 H       
  38 H38           -0.0145    -8.5494    -0.0422 H       
  39 H39           -0.9978    -7.3737     0.8629 H       
  40 H40            1.3746    -6.6998    -0.9356 H       
  41 H41            1.3910    -6.7089     0.8443 H       
@<TRIPOS>BOND
   1    1    2 1
   2    1    3 2
   3    2    5 1
   4    3    4 1
   5    3    7 1
   6    4    5 2
   7    5    6 1
   8    6    8 ar
   9    6   12 ar
  10    7   13 ar
  11    7   17 ar
  12    8    9 ar
  13    8   24 1
  14    9   10 ar
  15    9   21 1
  16   10   11 ar
  17   10   25 1
  18   11   12 ar
  19   11   18 1
  20   12   26 1
  21   13   14 ar
  22   13   27 1
  23   14   15 ar
  24   14   28 1
  25   15   16 ar
  26   15   29 1
  27   16   17 ar
  28   16   30 1
  29   17   31 1
  30   18   20 1
  31   19   20 1
  32   19   32 1
  33   19   33 1
  34   19   34 1
  35   20   35 1
  36   20   36 1
  37   21   23 1
  38   22   23 1
  39   22   37 1
  40   22   38 1
  41   22   39 1
  42   23   40 1
  43   23   41 1

#	End of record

