#	Name: ASD00960275
#	Creating user name:	WinNT
#	Creation time:	15. 06. 2019 18:53

#	Modifying user name:	WinNT
#	Modification time:	15. 06. 2019 18:53

#	Program:	/corina/corina34_cracker 3.40 0067  02.08.2006

@<TRIPOS>MOLECULE
ASD00960275
  39   41    0    0    0
SMALL
NO_CHARGES


@<TRIPOS>ATOM
   1 C1            -0.0169     1.3968     0.0097 C.2     
   2 C2             0.0021    -0.0041     0.0020 C.2     
   3 N3             1.2811     1.8202    -0.0004 N.pl3   
   4 C4             2.1029     0.7251    -0.0004 C.2     
   5 C5             1.3607    -0.3918    -0.0068 C.2     
   6 N6             1.8007     3.1238     0.0041 N.2     
   7 C7             3.0685     3.2844    -0.2329 C.2     
   8 N8             3.8952     2.2222    -0.5255 N.pl3   
   9 C9             3.6076     0.8826     0.0176 C.3     
  10 N10            4.1082     0.7796     1.3948 N.3     
  11 C11           -1.1351    -0.8743     0.0036 C.1     
  12 C12           -2.0675    -1.5878     0.0049 C.1     
  13 C13           -3.2364    -2.4824     0.0065 C.3     
  14 C14           -1.1692     2.2211     0.0199 C.2     
  15 O15           -2.2771     1.7179     0.0232 O.2     
  16 O16           -1.0380     3.5643     0.0261 O.3     
  17 C17           -2.2421     4.3337     0.0363 C.3     
  18 C18           -1.9003     5.8015     0.0419 C.ar    
  19 C19           -1.7498     6.4807    -1.1526 C.ar    
  20 C20           -1.4363     7.8270    -1.1474 C.ar    
  21 C21           -1.2737     8.4942     0.0524 C.ar    
  22 C22           -1.4251     7.8151     1.2469 C.ar    
  23 C23           -1.7429     6.4698     1.2417 C.ar    
  24 H24            1.7342    -1.4051    -0.0168 H       
  25 H25            3.4860     4.2799    -0.1998 H       
  26 H26            4.6709     2.3566    -1.0922 H       
  27 H27            4.0706     0.1189    -0.6074 H       
  28 H28            5.1053     0.9301     1.4294 H       
  29 H29            3.6243     1.4218     2.0044 H       
  30 H30           -2.9005    -3.5193    -0.0010 H       
  31 H31           -3.8323    -2.3000     0.9008 H       
  32 H32           -3.8422    -2.2903    -0.8791 H       
  33 H33           -2.8296     4.1009    -0.8519 H       
  34 H34           -2.8203     4.0919     0.9281 H       
  35 H35           -1.8768     5.9595    -2.0899 H       
  36 H36           -1.3180     8.3575    -2.0806 H       
  37 H37           -1.0280     9.5459     0.0564 H       
  38 H38           -1.2977     8.3363     2.1842 H       
  39 H39           -1.8648     5.9402     2.1750 H       
@<TRIPOS>BOND
   1    1    2 2
   2    1    3 1
   3    1   14 1
   4    2   11 1
   5    2    5 1
   6    3    4 1
   7    3    6 1
   8    4    5 2
   9    4    9 1
  10    5   24 1
  11    6    7 2
  12    7    8 1
  13    7   25 1
  14    8    9 1
  15    8   26 1
  16    9   10 1
  17    9   27 1
  18   10   28 1
  19   10   29 1
  20   11   12 3
  21   12   13 1
  22   13   30 1
  23   13   31 1
  24   13   32 1
  25   14   15 2
  26   14   16 1
  27   16   17 1
  28   17   18 1
  29   17   33 1
  30   17   34 1
  31   18   19 ar
  32   18   23 ar
  33   19   20 ar
  34   19   35 1
  35   20   21 ar
  36   20   36 1
  37   21   22 ar
  38   21   37 1
  39   22   23 ar
  40   22   38 1
  41   23   39 1

#	End of record

