#	Name: ASD07931692
#	Creating user name:	WinNT
#	Creation time:	15. 06. 2019 21:13

#	Modifying user name:	WinNT
#	Modification time:	15. 06. 2019 21:13

#	Program:	/corina/corina34_cracker 3.40 0067  02.08.2006

@<TRIPOS>MOLECULE
ASD07931692
  59   63    0    0    0
SMALL
NO_CHARGES


@<TRIPOS>ATOM
   1 C1            -0.0165     1.3638     0.0095 C.2     
   2 C2             0.0021    -0.0041     0.0020 C.2     
   3 C3             1.2948    -0.6930    -0.0137 C.2     
   4 N4             2.4269     0.0320    -0.0184 N.am    
   5 C5             2.3819     1.4078    -0.0128 C.2     
   6 C6             1.1929     2.0698     0.0018 C.2     
   7 C7             3.7400    -0.6270    -0.0278 C.3     
   8 C8             4.6598     0.1584    -0.9746 C.3     
   9 N9             4.7714     1.5376    -0.4790 N.am    
  10 C10            3.6569     2.1587    -0.0242 C.2     
  11 C11            6.0637     2.2276    -0.4769 C.3     
  12 O12            1.3435    -1.9113    -0.0219 O.2     
  13 N13           -1.1914    -0.7315     0.0096 N.pl3   
  14 C14           -2.1398    -0.7526    -0.9807 C.2     
  15 C15           -1.6287    -1.5563     0.9973 C.2     
  16 N16           -2.7818    -2.0540     0.6427 N.2     
  17 C17           -3.1190    -1.5782    -0.5654 C.2     
  18 C18           -4.3767    -1.9103    -1.3263 C.3     
  19 C19            6.2496     2.9662    -1.8038 C.3     
  20 O20            3.7030     3.3092     0.3661 O.2     
  21 C21            7.5398     3.7871    -1.7542 C.3     
  22 C22            6.3348     1.9509    -2.9451 C.3     
  23 C23            6.5207     2.6895    -4.2721 C.3     
  24 C24            7.8109     3.5104    -4.2224 C.3     
  25 C25            7.7257     4.5257    -3.0811 C.3     
  26 C26            8.9965     5.3343    -3.0322 C.ar    
  27 C27            8.9489     6.7067    -3.1913 C.ar    
  28 C28           10.1140     7.4487    -3.1466 C.ar    
  29 C29           11.3283     6.8178    -2.9425 C.ar    
  30 C30           11.3754     5.4442    -2.7833 C.ar    
  31 C31           10.2089     4.7039    -2.8226 C.ar    
  32 Cl32          12.7923     7.7491    -2.8867 Cl      
  33 H33           -0.9567     1.8952     0.0169 H       
  34 H34            1.1819     3.1497     0.0071 H       
  35 H35            4.1596    -0.6261     0.9781 H       
  36 H36            3.6349    -1.6522    -0.3828 H       
  37 H37            5.6464    -0.3047    -0.9942 H       
  38 H38            4.2344     0.1631    -1.9781 H       
  39 H39            6.0920     2.9435     0.3446 H       
  40 H40            6.8645     1.4988    -0.3514 H       
  41 H41           -2.1074    -0.2110    -1.9146 H       
  42 H42           -1.1089    -1.7651     1.9207 H       
  43 H43           -5.1590    -1.1982    -1.0636 H       
  44 H44           -4.1791    -1.8545    -2.3968 H       
  45 H45           -4.7016    -2.9183    -1.0689 H       
  46 H46            5.4022     3.6311    -1.9714 H       
  47 H47            7.4792     4.5105    -0.9410 H       
  48 H48            8.3872     3.1223    -1.5866 H       
  49 H49            7.1821     1.2861    -2.7776 H       
  50 H50            5.4156     1.3661    -2.9805 H       
  51 H51            6.5813     1.9661    -5.0852 H       
  52 H52            5.6733     3.3543    -4.4397 H       
  53 H53            8.6582     2.8456    -4.0548 H       
  54 H54            7.9433     4.0366    -5.1678 H       
  55 H55            6.8784     5.1906    -3.2487 H       
  56 H56            8.0010     7.1991    -3.3510 H       
  57 H57           10.0767     8.5209    -3.2712 H       
  58 H58           12.3229     4.9511    -2.6240 H       
  59 H59           10.2455     3.6317    -2.6984 H       
@<TRIPOS>BOND
   1    1    2 2
   2    1    6 1
   3    1   33 1
   4    2    3 1
   5    2   13 1
   6    3    4 am
   7    3   12 2
   8    4    5 1
   9    4    7 1
  10    5    6 2
  11    5   10 1
  12    6   34 1
  13    7    8 1
  14    7   35 1
  15    7   36 1
  16    8    9 1
  17    8   37 1
  18    8   38 1
  19    9   10 am
  20    9   11 1
  21   10   20 2
  22   11   19 1
  23   11   39 1
  24   11   40 1
  25   13   14 1
  26   13   15 1
  27   14   17 2
  28   14   41 1
  29   15   16 2
  30   15   42 1
  31   16   17 1
  32   17   18 1
  33   18   43 1
  34   18   44 1
  35   18   45 1
  36   19   22 1
  37   19   21 1
  38   19   46 1
  39   21   25 1
  40   21   47 1
  41   21   48 1
  42   22   23 1
  43   22   49 1
  44   22   50 1
  45   23   24 1
  46   23   51 1
  47   23   52 1
  48   24   25 1
  49   24   53 1
  50   24   54 1
  51   25   26 1
  52   25   55 1
  53   26   27 ar
  54   26   31 ar
  55   27   28 ar
  56   27   56 1
  57   28   29 ar
  58   28   57 1
  59   29   30 ar
  60   29   32 1
  61   30   31 ar
  62   30   58 1
  63   31   59 1

#	End of record

