#	Name: ASD05850009
#	Creating user name:	WinNT
#	Creation time:	15. 06. 2019 21:04

#	Modifying user name:	WinNT
#	Modification time:	15. 06. 2019 21:04

#	Program:	/corina/corina34_cracker 3.40 0067  02.08.2006

@<TRIPOS>MOLECULE
ASD05850009
  15   16    0    0    0
SMALL
NO_CHARGES


@<TRIPOS>ATOM
   1 O1            -0.0163     1.3515     0.0095 O.3     
   2 C2             0.0021    -0.0041     0.0020 C.ar    
   3 C3            -0.9992    -0.9626     0.0060 C.ar    
   4 C4            -0.6694    -2.3038    -0.0047 C.ar    
   5 C5             0.6588    -2.6968    -0.0195 C.ar    
   6 Cl6            1.0621    -4.3852    -0.0329 Cl      
   7 C7             1.6638    -1.7477    -0.0241 C.ar    
   8 C8             1.3393    -0.4001    -0.0129 C.ar    
   9 N9             2.1012     0.7674    -0.0133 N.am    
  10 C10            1.2465     1.8094    -0.0001 C.2     
  11 S11            1.6998     3.4603     0.0043 S.2     
  12 H12           -2.0361    -0.6610     0.0179 H       
  13 H13           -1.4506    -3.0496    -0.0012 H       
  14 H14            2.6990    -2.0554    -0.0356 H       
  15 H15            3.0697     0.8202    -0.0223 H       
@<TRIPOS>BOND
   1    1    2 1
   2    1   10 1
   3    2    3 ar
   4    2    8 ar
   5    3   12 1
   6    3    4 ar
   7    4   13 1
   8    4    5 ar
   9    5    6 1
  10    5    7 ar
  11    7    8 ar
  12    7   14 1
  13    8    9 1
  14    9   10 am
  15    9   15 1
  16   10   11 2

#	End of record

