#	Name: ASD01000068
#	Creating user name:	WinNT
#	Creation time:	15. 06. 2019 18:54

#	Modifying user name:	WinNT
#	Modification time:	15. 06. 2019 18:54

#	Program:	/corina/corina34_cracker 3.40 0067  02.08.2006

@<TRIPOS>MOLECULE
ASD01000068
  33   35    0    0    0
SMALL
NO_CHARGES


@<TRIPOS>ATOM
   1 C1            -0.0167     1.3770     0.0096 C.ar    
   2 C2             0.0021    -0.0041     0.0020 C.ar    
   3 C3             1.1707     2.0858     0.0021 C.ar    
   4 C4             2.4033     0.0331    -0.0207 C.ar    
   5 C5             6.0288     3.7726     3.2496 C.3     
   6 C6             5.6515     2.2909     3.3252 C.3     
   7 C7             4.8041     4.6013     2.8509 C.3     
   8 C8             5.1101     1.8487     1.9827 C.2     
   9 C9             3.7540     4.5568    -0.6765 C.2     
  10 C10            4.2959     4.1015     1.5117 C.2     
  11 C11            3.9679     2.6423     1.3870 C.3     
  12 C12            1.2136    -0.6802    -0.0132 C.ar    
  13 C13            2.3791     1.4145    -0.0130 C.ar    
  14 C14            3.6712     2.1901    -0.0212 C.3     
  15 N15            4.1645     4.9350     0.5410 N.2     
  16 N16            3.5540     3.2703    -0.9806 N.am    
  17 O17            5.5745     0.8946     1.4061 O.2     
  18 O18            1.2347    -2.0390    -0.0202 O.3     
  19 S19            3.4779     5.7501    -1.8726 S.2     
  20 H20           -0.9594     1.9038     0.0169 H       
  21 H21           -0.9255    -0.5572     0.0082 H       
  22 H22            1.1540     3.1657     0.0077 H       
  23 H23            3.3475    -0.4909    -0.0325 H       
  24 H24            6.3896     4.1047     4.2230 H       
  25 H25            6.8154     3.9086     2.5074 H       
  26 H26            6.5345     1.7022     3.5740 H       
  27 H27            4.8890     2.1476     4.0908 H       
  28 H28            4.0243     4.4871     3.6039 H       
  29 H29            5.0844     5.6513     2.7672 H       
  30 H30            3.0779     2.4465     1.9850 H       
  31 H31            4.4710     1.5253    -0.3474 H       
  32 H32            3.3176     3.0473    -1.8945 H       
  33 H33            1.2322    -2.4278    -0.9056 H       
@<TRIPOS>BOND
   1    1    2 ar
   2    1    3 ar
   3    1   20 1
   4    2   12 ar
   5    2   21 1
   6    3   13 ar
   7    3   22 1
   8    4   12 ar
   9    4   13 ar
  10    4   23 1
  11    5    6 1
  12    5    7 1
  13    5   24 1
  14    5   25 1
  15    6    8 1
  16    6   26 1
  17    6   27 1
  18    7   10 1
  19    7   28 1
  20    7   29 1
  21    8   11 1
  22    8   17 2
  23    9   15 1
  24    9   16 am
  25    9   19 2
  26   10   11 1
  27   10   15 2
  28   11   14 1
  29   11   30 1
  30   12   18 1
  31   13   14 1
  32   14   16 1
  33   14   31 1
  34   16   32 1
  35   18   33 1

#	End of record

