#	Name: ASD01908009
#	Creating user name:	WinNT
#	Creation time:	15. 06. 2019 19:54

#	Modifying user name:	WinNT
#	Modification time:	15. 06. 2019 19:54

#	Program:	/corina/corina34_cracker 3.40 0067  02.08.2006

@<TRIPOS>MOLECULE
ASD01908009
  27   29    0    0    0
SMALL
NO_CHARGES


@<TRIPOS>ATOM
   1 S1            -0.0211     1.7049     0.0114 S.3     
   2 C2             0.0021    -0.0041     0.0020 C.2     
   3 N3             1.2205    -0.4385    -0.0119 N.2     
   4 C4             2.1837     0.4741    -0.0162 C.2     
   5 C5             1.7399     1.7435    -0.0052 C.2     
   6 O6            -1.1004    -0.7928     0.0090 O.3     
   7 C7            -2.3137    -0.1899     0.0241 C.ar    
   8 N8            -3.4057    -0.9372     0.0312 N.ar    
   9 C9            -4.6060    -0.3812     0.0463 C.ar    
  10 C10           -4.7103     1.0009     0.0547 C.ar    
  11 C11           -3.5458     1.7525     0.0469 C.ar    
  12 N12           -2.3776     1.1317     0.0368 N.ar    
  13 N13            5.4955    -1.0184    -0.0552 N.pl3   
  14 N14            5.8153     0.3448    -0.0502 N.2     
  15 C15            4.7035     1.0319    -0.0363 C.2     
  16 C16            3.6273     0.1239    -0.0319 C.2     
  17 C17            4.1507    -1.1354    -0.0438 C.2     
  18 C18            3.3693    -2.4240    -0.0447 C.3     
  19 H19            2.3553     2.6311    -0.0063 H       
  20 H20           -5.4935    -0.9965     0.0517 H       
  21 H21           -5.6774     1.4814     0.0667 H       
  22 H22           -3.5914     2.8315     0.0527 H       
  23 H23            6.1303    -1.7517    -0.0687 H       
  24 H24            4.6240     2.1089    -0.0294 H       
  25 H25            3.1898    -2.7407     0.9828 H       
  26 H26            2.4155    -2.2702    -0.5494 H       
  27 H27            3.9375    -3.1930    -0.5679 H       
@<TRIPOS>BOND
   1    1    2 1
   2    1    5 1
   3    2    3 2
   4    2    6 1
   5    3    4 1
   6    4    5 2
   7    4   16 1
   8    5   19 1
   9    6    7 1
  10    7    8 ar
  11    7   12 ar
  12    8    9 ar
  13    9   10 ar
  14    9   20 1
  15   10   11 ar
  16   10   21 1
  17   11   12 ar
  18   11   22 1
  19   13   14 1
  20   13   17 1
  21   13   23 1
  22   14   15 2
  23   15   16 1
  24   15   24 1
  25   16   17 2
  26   17   18 1
  27   18   25 1
  28   18   26 1
  29   18   27 1

#	End of record

