#	Name: ASD05430168
#	Creating user name:	WinNT
#	Creation time:	15. 06. 2019 20:59

#	Modifying user name:	WinNT
#	Modification time:	15. 06. 2019 20:59

#	Program:	/corina/corina34_cracker 3.40 0067  02.08.2006

@<TRIPOS>MOLECULE
ASD05430168
  58   63    0    0    0
SMALL
NO_CHARGES


@<TRIPOS>ATOM
   1 C1            -1.1822    -0.7152     0.0639 C.ar    
   2 C2            -0.0095    -0.0070     0.3243 C.ar    
   3 C3            -0.0495     1.3711     0.4937 C.ar    
   4 C4            -1.2480     2.0450     0.4052 C.ar    
   5 C5            -2.4285     1.3413     0.1438 C.ar    
   6 C6            -2.3875    -0.0452    -0.0319 C.ar    
   7 O7            -4.8928     0.0098     0.1067 O.3     
   8 C8            -4.8652     1.3681    -0.0460 C.2     
   9 C9            -3.7096     2.0592     0.0490 C.2     
  10 C10           -6.0323    -0.6707    -0.4293 C.3     
  11 C11           -6.7469     0.0367    -1.5880 C.3     
  12 N12           -7.0397     1.4109    -1.1751 N.pl3   
  13 C13           -6.1464     2.0521    -0.3193 C.2     
  14 C14           -8.2216     2.1311    -1.6454 C.3     
  15 C15           -8.7385     3.0110    -0.5019 C.3     
  16 O16           -7.6843     3.8239     0.0032 O.3     
  17 N17           -6.4464     3.1872     0.2207 N.2     
  18 C18           -7.8538     2.9950    -2.8241 C.ar    
  19 C19           -8.7177     3.1015    -3.8982 C.ar    
  20 C20           -6.6560     3.6845    -2.8275 C.ar    
  21 C21           -6.3172     4.4792    -3.9092 C.ar    
  22 C22           -7.1802     4.5825    -4.9890 C.ar    
  23 C23           -8.3822     3.8939    -4.9812 C.ar    
  24 O24           -1.1394    -2.0639    -0.1014 O.3     
  25 N25            1.2124    -0.6874     0.4157 N.pl3   
  26 C26            2.4218    -0.1466     0.6602 C.2     
  27 C27           -2.3785    -2.7248    -0.3654 C.3     
  28 N28            1.4190    -2.0697     0.2768 N.2     
  29 C29            2.7005    -2.2781     0.4342 C.2     
  30 N30            3.3042    -1.1132     0.6660 N.2     
  31 C31            3.3834    -3.6199     0.3686 C.3     
  32 F32           -6.8518     5.3578    -6.0455 F       
  33 F33           -5.1468     5.1538    -3.9122 F       
  34 Cl34          -9.4648     4.0216    -6.3322 Cl      
  35 C35           -5.9918    -2.1993    -0.4574 C.3     
  36 C36           -6.8958    -1.4757     0.5429 C.3     
  37 H37            0.8611     1.9157     0.6955 H       
  38 H38           -1.2762     3.1164     0.5381 H       
  39 H39           -3.2964    -0.5923    -0.2339 H       
  40 H40           -3.7252     3.1391     0.0555 H       
  41 H41           -6.1020     0.0463    -2.4667 H       
  42 H42           -7.6764    -0.4836    -1.8192 H       
  43 H43           -8.9931     1.4189    -1.9381 H       
  44 H44           -9.5418     3.6486    -0.8710 H       
  45 H45           -9.1211     2.3768     0.2978 H       
  46 H46           -9.6551     2.5653    -3.8919 H       
  47 H47           -5.9841     3.6035    -1.9858 H       
  48 H48            2.6272     0.9011     0.8226 H       
  49 H49           -2.2031    -3.7949    -0.4760 H       
  50 H50           -3.0657    -2.5530     0.4631 H       
  51 H51           -2.8118    -2.3308    -1.2846 H       
  52 H52            3.6921    -3.8207    -0.6573 H       
  53 H53            4.2595    -3.6138     1.0171 H       
  54 H54            2.6925    -4.3958     0.6986 H       
  55 H55           -6.4714    -2.7001    -1.2984 H       
  56 H56           -5.0981    -2.6864    -0.0673 H       
  57 H57           -6.5968    -1.4868     1.5910 H       
  58 H58           -7.9700    -1.5005     0.3599 H       
@<TRIPOS>BOND
   1    1    2 ar
   2    1   24 1
   3    1    6 ar
   4    2    3 ar
   5    2   25 1
   6    3    4 ar
   7    3   37 1
   8    4    5 ar
   9    4   38 1
  10    5    6 ar
  11    5    9 1
  12    6   39 1
  13    7    8 1
  14    7   10 1
  15    8    9 2
  16    8   13 1
  17    9   40 1
  18   10   11 1
  19   10   35 1
  20   10   36 1
  21   11   12 1
  22   11   41 1
  23   11   42 1
  24   12   13 1
  25   12   14 1
  26   13   17 2
  27   14   15 1
  28   14   18 1
  29   14   43 1
  30   15   16 1
  31   15   44 1
  32   15   45 1
  33   16   17 1
  34   18   19 ar
  35   18   20 ar
  36   19   23 ar
  37   19   46 1
  38   20   21 ar
  39   20   47 1
  40   21   22 ar
  41   21   33 1
  42   22   23 ar
  43   22   32 1
  44   23   34 1
  45   24   27 1
  46   25   26 1
  47   25   28 1
  48   26   30 2
  49   26   48 1
  50   27   49 1
  51   27   50 1
  52   27   51 1
  53   28   29 2
  54   29   30 1
  55   29   31 1
  56   31   52 1
  57   31   53 1
  58   31   54 1
  59   35   36 1
  60   35   55 1
  61   35   56 1
  62   36   57 1
  63   36   58 1

#	End of record

