#	Name: ASD02408054
#	Creating user name:	WinNT
#	Creation time:	15. 06. 2019 20:21

#	Modifying user name:	WinNT
#	Modification time:	15. 06. 2019 20:21

#	Program:	/corina/corina34_cracker 3.40 0067  02.08.2006

@<TRIPOS>MOLECULE
ASD02408054
  41   43    0    0    0
SMALL
NO_CHARGES


@<TRIPOS>ATOM
   1 C1            -0.0160     1.3297     0.0094 C.2     
   2 C2             0.0021    -0.0041     0.0020 C.2     
   3 C3             1.2433     2.1575     0.0018 C.3     
   4 C4             1.6498     2.4405    -1.4215 C.2     
   5 N5             2.7582     3.1716    -1.6490 N.am    
   6 N6             0.9191     1.9646    -2.3929 N.2     
   7 C7             1.2321     2.1838    -3.6764 C.2     
   8 C8             2.3727     2.9431    -3.9855 C.2     
   9 C9             3.1518     3.4438    -2.9109 C.2     
  10 N10            0.4467     1.6713    -4.6796 N.pl3   
  11 C11           -0.7409     0.8800    -4.3483 C.3     
  12 O12            4.1514     4.1084    -3.1224 O.2     
  13 C13           -1.4215     0.4395    -5.6186 C.ar    
  14 S14           -1.6467    -0.6164     0.0145 S.3     
  15 C15           -2.2867     1.0218     0.0295 C.2     
  16 C16           -1.2791     1.8958     0.0186 C.2     
  17 C17           -2.5303     1.1211    -6.0809 C.ar    
  18 C18           -3.1553     0.7173    -7.2465 C.ar    
  19 C19           -2.6723    -0.3690    -7.9520 C.ar    
  20 C20           -1.5637    -1.0545    -7.4936 C.ar    
  21 C21           -0.9313    -0.6477    -6.3279 C.ar    
  22 O22            0.1592    -1.3202    -5.8749 O.3     
  23 C23            0.6004    -2.4373    -6.6492 C.3     
  24 C24            2.7412     3.1997    -5.3453 C.1     
  25 N25            3.0335     3.4032    -6.4240 N.1     
  26 H26            0.8929    -0.6146    -0.0101 H       
  27 H27            1.0628     3.0981     0.5220 H       
  28 H28            2.0405     1.6108     0.5055 H       
  29 H29            3.2770     3.5051    -0.9003 H       
  30 H30            0.6782     1.8332    -5.6075 H       
  31 H31           -0.4444     0.0035    -3.7722 H       
  32 H32           -1.4288     1.4864    -3.7590 H       
  33 H33           -3.3352     1.2805     0.0409 H       
  34 H34           -1.4368     2.9642     0.0246 H       
  35 H35           -2.9098     1.9699    -5.5314 H       
  36 H36           -4.0224     1.2514    -7.6062 H       
  37 H37           -3.1622    -0.6824    -8.8621 H       
  38 H38           -1.1870    -1.9033    -8.0449 H       
  39 H39            1.4765    -2.8827    -6.1779 H       
  40 H40           -0.1975    -3.1777    -6.7062 H       
  41 H41            0.8588    -2.1034    -7.6542 H       
@<TRIPOS>BOND
   1    1    2 2
   2    1    3 1
   3    1   16 1
   4    2   14 1
   5    2   26 1
   6    3    4 1
   7    3   27 1
   8    3   28 1
   9    4    5 1
  10    4    6 2
  11    5    9 am
  12    5   29 1
  13    6    7 1
  14    7    8 2
  15    7   10 1
  16    8    9 1
  17    8   24 1
  18    9   12 2
  19   10   11 1
  20   10   30 1
  21   11   13 1
  22   11   31 1
  23   11   32 1
  24   13   17 ar
  25   13   21 ar
  26   14   15 1
  27   15   16 2
  28   15   33 1
  29   16   34 1
  30   17   18 ar
  31   17   35 1
  32   18   19 ar
  33   18   36 1
  34   19   20 ar
  35   19   37 1
  36   20   21 ar
  37   20   38 1
  38   21   22 1
  39   22   23 1
  40   23   39 1
  41   23   40 1
  42   23   41 1
  43   24   25 3

#	End of record

