#	Name: ASD01916449
#	Creating user name:	WinNT
#	Creation time:	15. 06. 2019 20:07

#	Modifying user name:	WinNT
#	Modification time:	15. 06. 2019 20:07

#	Program:	/corina/corina34_cracker 3.40 0067  02.08.2006

@<TRIPOS>MOLECULE
ASD01916449
  39   41    0    0    0
SMALL
NO_CHARGES


@<TRIPOS>ATOM
   1 C1            -0.0170     1.4019     0.0097 C.2     
   2 C2             0.0021    -0.0041     0.0020 C.2     
   3 C3             1.1970    -0.6570    -0.0129 C.2     
   4 C4             2.3917     0.0949    -0.0202 C.2     
   5 C5             2.3326     1.4585    -0.0123 C.2     
   6 N6             1.1360     2.0964     0.0025 N.am    
   7 O7            -1.0836     1.9951     0.0180 O.2     
   8 C8             1.0977     3.5608     0.0107 C.3     
   9 C9             1.0981     4.0629     1.4559 C.3     
  10 C10            1.0597     5.5344     1.4642 C.1     
  11 C11            1.0290     6.7080     1.4708 C.1     
  12 C12            0.9916     8.1395     1.4788 C.ar    
  13 C13            0.9850     8.8251     2.6941 C.ar    
  14 C14            0.9487    10.2081     2.6851 C.ar    
  15 C15            0.9201    10.8626     1.4612 C.ar    
  16 C16            0.9285    10.1208     0.2944 C.ar    
  17 N17            0.9688     8.8045     0.3295 N.ar    
  18 C18            3.7060    -0.5940    -0.0360 C.ar    
  19 C19            4.0984    -1.3752     1.0491 C.ar    
  20 C20            5.3214    -2.0140     1.0303 C.ar    
  21 C21            6.1588    -1.8792    -0.0651 C.ar    
  22 C22            5.7728    -1.1032    -1.1459 C.ar    
  23 C23            4.5487    -0.4662    -1.1383 C.ar    
  24 F24            7.3555    -2.5061    -0.0792 F       
  25 H25           -0.9230    -0.5613     0.0082 H       
  26 H26            1.2302    -1.7365    -0.0186 H       
  27 H27            3.2463     2.0342    -0.0180 H       
  28 H28            1.9729     3.9501    -0.5094 H       
  29 H29            0.1937     3.9035    -0.4927 H       
  30 H30            0.2229     3.6737     1.9761 H       
  31 H31            2.0022     3.7203     1.9593 H       
  32 H32            1.0076     8.2839     3.6284 H       
  33 H33            0.9424    10.7661     3.6097 H       
  34 H34            0.8911    11.9414     1.4208 H       
  35 H35            0.9059    10.6277    -0.6590 H       
  36 H36            3.4465    -1.4802     1.9038 H       
  37 H37            5.6263    -2.6197     1.8709 H       
  38 H38            6.4288    -1.0005    -1.9976 H       
  39 H39            4.2464     0.1344    -1.9834 H       
@<TRIPOS>BOND
   1    1    2 1
   2    1    6 am
   3    1    7 2
   4    2    3 2
   5    2   25 1
   6    3    4 1
   7    3   26 1
   8    4    5 2
   9    4   18 1
  10    5    6 1
  11    5   27 1
  12    6    8 1
  13    8    9 1
  14    8   28 1
  15    8   29 1
  16    9   10 1
  17    9   30 1
  18    9   31 1
  19   10   11 3
  20   11   12 1
  21   12   13 ar
  22   12   17 ar
  23   13   14 ar
  24   13   32 1
  25   14   15 ar
  26   14   33 1
  27   15   16 ar
  28   15   34 1
  29   16   17 ar
  30   16   35 1
  31   18   19 ar
  32   18   23 ar
  33   19   20 ar
  34   19   36 1
  35   20   21 ar
  36   20   37 1
  37   21   22 ar
  38   21   24 1
  39   22   23 ar
  40   22   38 1
  41   23   39 1

#	End of record

