#	Name: ASD02448169
#	Creating user name:	WinNT
#	Creation time:	15. 06. 2019 20:21

#	Modifying user name:	WinNT
#	Modification time:	15. 06. 2019 20:21

#	Program:	/corina/corina34_cracker 3.40 0067  02.08.2006

@<TRIPOS>MOLECULE
ASD02448169
  68   72    0    0    0
SMALL
NO_CHARGES


@<TRIPOS>ATOM
   1 C1            -0.3350     1.4680     0.1646 C.ar    
   2 C2            -0.2072     0.0942     0.0946 C.ar    
   3 C3             1.0539    -0.4871     0.0636 C.ar    
   4 C4             2.1860     0.3128     0.1031 C.ar    
   5 C5             2.0549     1.6930     0.1735 C.ar    
   6 C6             0.7906     2.2683     0.2042 C.ar    
   7 N7             3.1925     2.5023     0.2139 N.am    
   8 C8             3.3181     3.9044    -0.2050 C.3     
   9 C9             4.7092     4.4107     0.0012 C.2     
  10 N10            5.5624     3.5146     0.5170 N.am    
  11 S11            4.7182     2.1000     0.7560 S.o2    
  12 O12            5.0404     5.5439    -0.2768 O.2     
  13 O13            4.6319     1.8952     2.1596 O.2     
  14 O14            5.2395     1.1417    -0.1546 O.2     
  15 N15            1.1823    -1.8815    -0.0070 N.pl3   
  16 C16            1.8709    -2.5863    -0.9578 C.2     
  17 C17            0.6512    -2.7845     0.8588 C.2     
  18 N18            0.9864    -3.9844     0.4746 N.2     
  19 C19            1.7383    -3.9009    -0.6418 C.2     
  20 C20            2.3176    -5.0422    -1.3920 C.ar    
  21 C21            2.1021    -6.3490    -0.9543 C.ar    
  22 C22            3.0739    -4.8129    -2.5393 C.ar    
  23 C23            3.6108    -5.8781    -3.2338 C.ar    
  24 C24            3.3988    -7.1729    -2.7929 C.ar    
  25 C25            2.6437    -7.4075    -1.6565 C.ar    
  26 Cl26           4.0766    -8.5078    -3.6718 Cl      
  27 Cl27           1.1554    -6.6441     0.4706 Cl      
  28 C28            0.6896    -2.4049     3.2899 C.ar    
  29 C29            1.3588    -1.2377     3.6122 C.ar    
  30 C30            2.1597    -1.1856     4.7345 C.ar    
  31 C31            2.2935    -2.3132     5.5454 C.ar    
  32 C32            1.6155    -3.4872     5.2150 C.ar    
  33 C33            0.8181    -3.5264     4.0897 C.ar    
  34 C34            3.1502    -2.2645     6.7489 C.2     
  35 C35           -0.1880    -2.4530     2.0658 C.3     
  36 C36            3.2754    -3.3375     7.5173 C.2     
  37 C37            4.1489    -3.2878     8.7444 C.3     
  38 C38            5.2599    -4.3325     8.6221 C.3     
  39 C39            4.7699    -1.8954     8.8723 C.3     
  40 C40            3.3035    -3.5851     9.9845 C.3     
  41 H41           -1.3168     1.9175     0.1840 H       
  42 H42           -1.0890    -0.5286     0.0642 H       
  43 H43            3.1675    -0.1370     0.0795 H       
  44 H44            0.6876     3.3420     0.2590 H       
  45 H45            3.0616     3.9857    -1.2613 H       
  46 H46            2.6264     4.5140     0.3763 H       
  47 H47            6.4996     3.6641     0.7173 H       
  48 H48            2.4140    -2.1766    -1.7967 H       
  49 H49            3.2396    -3.8032    -2.8850 H       
  50 H50            4.1972    -5.7009    -4.1233 H       
  51 H51            2.4815    -8.4196    -1.3163 H       
  52 H52            1.2544    -0.3656     2.9838 H       
  53 H53            2.6821    -0.2740     4.9846 H       
  54 H54            1.7153    -4.3634     5.8384 H       
  55 H55            0.2926    -4.4343     3.8331 H       
  56 H56            3.6743    -1.3548     7.0023 H       
  57 H57           -0.6643    -1.4831     1.9219 H       
  58 H58           -0.9534    -3.2177     2.1973 H       
  59 H59            2.7514    -4.2472     7.2639 H       
  60 H60            5.8622    -4.1208     7.7386 H       
  61 H61            5.8917    -4.2966     9.5096 H       
  62 H62            4.8175    -5.3245     8.5310 H       
  63 H63            3.9784    -1.1511     8.9594 H       
  64 H64            5.4017    -1.8595     9.7598 H       
  65 H65            5.3722    -1.6836     7.9888 H       
  66 H66            2.8611    -4.5771     9.8934 H       
  67 H67            3.9353    -3.5492    10.8720 H       
  68 H68            2.5120    -2.8408    10.0716 H       
@<TRIPOS>BOND
   1    1    2 ar
   2    1    6 ar
   3    1   41 1
   4    2    3 ar
   5    2   42 1
   6    3    4 ar
   7    3   15 1
   8    4    5 ar
   9    4   43 1
  10    5    6 ar
  11    5    7 1
  12    6   44 1
  13    7    8 1
  14    7   11 am
  15    8    9 1
  16    8   45 1
  17    8   46 1
  18    9   10 am
  19    9   12 2
  20   10   11 am
  21   10   47 1
  22   11   13 2
  23   11   14 2
  24   15   16 1
  25   15   17 1
  26   16   19 2
  27   16   48 1
  28   17   18 2
  29   17   35 1
  30   18   19 1
  31   19   20 1
  32   20   21 ar
  33   20   22 ar
  34   21   27 1
  35   21   25 ar
  36   22   23 ar
  37   22   49 1
  38   23   24 ar
  39   23   50 1
  40   24   25 ar
  41   24   26 1
  42   25   51 1
  43   28   29 ar
  44   28   33 ar
  45   28   35 1
  46   29   30 ar
  47   29   52 1
  48   30   31 ar
  49   30   53 1
  50   31   32 ar
  51   31   34 1
  52   32   33 ar
  53   32   54 1
  54   33   55 1
  55   34   36 2
  56   34   56 1
  57   35   57 1
  58   35   58 1
  59   36   37 1
  60   36   59 1
  61   37   39 1
  62   37   40 1
  63   37   38 1
  64   38   60 1
  65   38   61 1
  66   38   62 1
  67   39   63 1
  68   39   64 1
  69   39   65 1
  70   40   66 1
  71   40   67 1
  72   40   68 1

#	End of record

