#	Name: ASD00570014
#	Creating user name:	WinNT
#	Creation time:	15. 06. 2019 18:36

#	Modifying user name:	WinNT
#	Modification time:	15. 06. 2019 18:36

#	Program:	/corina/corina34_cracker 3.40 0067  02.08.2006

@<TRIPOS>MOLECULE
ASD00570014
  65   68    0    0    0
SMALL
NO_CHARGES


@<TRIPOS>ATOM
   1 C1            -0.2165    -0.5428    -2.1310 C.ar    
   2 C2             0.3387    -1.8002    -1.9320 C.ar    
   3 C3             1.6593    -1.9372    -1.5538 C.ar    
   4 C4             2.4488    -0.7934    -1.3685 C.ar    
   5 C5             1.8767     0.4819    -1.5728 C.ar    
   6 C6             0.5397     0.5944    -1.9549 C.ar    
   7 N7             3.7480    -0.8825    -0.9974 N.2     
   8 C8             4.4858     0.1856    -0.8238 C.2     
   9 N9             4.0105     1.4563    -1.0006 N.am    
  10 C10            2.7258     1.6636    -1.3714 C.2     
  11 C11            4.8601     2.5510    -0.7957 C.ar    
  12 C12            5.3159     2.8480     0.4814 C.ar    
  13 C13            6.1547     3.9289     0.6801 C.ar    
  14 C14            6.5391     4.7139    -0.3926 C.ar    
  15 C15            6.0858     4.4199    -1.6655 C.ar    
  16 C16            5.2527     3.3378    -1.8708 C.ar    
  17 Cl17           6.7256     4.3018     2.2766 Cl      
  18 S18            6.1671    -0.0234    -0.3399 S.3     
  19 C19            6.1971    -1.8133    -0.0729 C.3     
  20 C20            7.6018    -2.3257    -0.2607 C.2     
  21 C21            5.7265    -2.1248     1.3492 C.3     
  22 C22            4.2947    -1.6184     1.5350 C.3     
  23 C23            3.8580    -1.8439     2.9839 C.3     
  24 N24            7.8092    -3.6103    -0.6119 N.am    
  25 C25            9.1728    -4.1245    -0.7987 C.3     
  26 C26            9.2706    -4.7708    -2.1842 C.3     
  27 C27            8.1746    -5.8293    -2.3273 C.3     
  28 C28            6.8017    -5.1651    -2.2000 C.3     
  29 C29            6.6762    -4.5247    -0.8092 C.3     
  30 O30            8.5457    -1.5822    -0.0959 O.2     
  31 C31            8.2889    -6.4911    -3.6764 C.2     
  32 N32            7.4222    -7.4622    -4.0263 N.am    
  33 O33            9.1608    -6.1499    -4.4473 O.2     
  34 O34            2.2896     2.7886    -1.5327 O.2     
  35 C35            2.4262    -1.3376     3.1697 C.3     
  36 O36            2.1909    -3.1735    -1.3617 O.3     
  37 H37           -1.2504    -0.4563    -2.4311 H       
  38 H38           -0.2697    -2.6810    -2.0744 H       
  39 H39            0.1002     1.5683    -2.1120 H       
  40 H40            5.0153     2.2357     1.3187 H       
  41 H41            7.1942     5.5581    -0.2354 H       
  42 H42            6.3869     5.0348    -2.5007 H       
  43 H43            4.8992     3.1090    -2.8653 H       
  44 H44            5.5344    -2.2987    -0.7894 H       
  45 H45            5.7552    -3.2019     1.5137 H       
  46 H46            6.3826    -1.6303     2.0655 H       
  47 H47            4.2530    -0.5539     1.3044 H       
  48 H48            3.6275    -2.1616     0.8657 H       
  49 H49            3.8997    -2.9084     3.2145 H       
  50 H50            4.5252    -1.3007     3.6532 H       
  51 H51            9.8860    -3.3032    -0.7275 H       
  52 H52            9.3911    -4.8682    -0.0324 H       
  53 H53            9.1417    -4.0076    -2.9516 H       
  54 H54           10.2474    -5.2408    -2.2983 H       
  55 H55            8.2893    -6.5790    -1.5444 H       
  56 H56            6.6961    -4.3981    -2.9673 H       
  57 H57            6.0214    -5.9157    -2.3253 H       
  58 H58            6.6905    -5.3028    -0.0460 H       
  59 H59            5.7423    -3.9661    -0.7471 H       
  60 H60            6.7249    -7.7351    -3.4097 H       
  61 H61            7.4958    -7.8881    -4.8946 H       
  62 H62            2.3845    -0.2730     2.9391 H       
  63 H63            1.7590    -1.8807     2.5005 H       
  64 H64            2.1151    -1.4982     4.2020 H       
  65 H65            2.5851    -3.5598    -2.1558 H       
@<TRIPOS>BOND
   1    1    2 ar
   2    1    6 ar
   3    1   37 1
   4    2    3 ar
   5    2   38 1
   6    3    4 ar
   7    3   36 1
   8    4    5 ar
   9    4    7 1
  10    5    6 ar
  11    5   10 1
  12    6   39 1
  13    7    8 2
  14    8    9 1
  15    8   18 1
  16    9   10 am
  17    9   11 1
  18   10   34 2
  19   11   12 ar
  20   11   16 ar
  21   12   13 ar
  22   12   40 1
  23   13   14 ar
  24   13   17 1
  25   14   15 ar
  26   14   41 1
  27   15   16 ar
  28   15   42 1
  29   16   43 1
  30   18   19 1
  31   19   20 1
  32   19   21 1
  33   19   44 1
  34   20   24 am
  35   20   30 2
  36   21   22 1
  37   21   45 1
  38   21   46 1
  39   22   23 1
  40   22   47 1
  41   22   48 1
  42   23   35 1
  43   23   49 1
  44   23   50 1
  45   24   25 1
  46   24   29 1
  47   25   26 1
  48   25   51 1
  49   25   52 1
  50   26   27 1
  51   26   53 1
  52   26   54 1
  53   27   28 1
  54   27   31 1
  55   27   55 1
  56   28   29 1
  57   28   56 1
  58   28   57 1
  59   29   58 1
  60   29   59 1
  61   31   32 am
  62   31   33 2
  63   32   60 1
  64   32   61 1
  65   35   62 1
  66   35   63 1
  67   35   64 1
  68   36   65 1

#	End of record

