#	Name: ASD05490054
#	Creating user name:	WinNT
#	Creation time:	15. 06. 2019 21:01

#	Modifying user name:	WinNT
#	Modification time:	15. 06. 2019 21:01

#	Program:	/corina/corina34_cracker 3.40 0067  02.08.2006

@<TRIPOS>MOLECULE
ASD05490054
  47   50    0    0    0
SMALL
NO_CHARGES


@<TRIPOS>ATOM
   1 O1            -0.0173     1.4248     0.0099 O.3     
   2 N2             2.2882     1.3274    -0.0127 N.ar    
   3 C3             3.4875     1.8993    -0.0214 C.ar    
   4 C4             1.1816     2.0563     0.0018 C.ar    
   5 N5             1.2063     3.3776     0.0082 N.ar    
   6 C6             2.3629     4.0327     0.0007 C.ar    
   7 C7             3.5625     3.3023    -0.0142 C.ar    
   8 N8             4.6377     1.1297    -0.0361 N.pl3   
   9 C9             4.0886     5.4077    -0.0079 C.2     
  10 N10            4.5780     4.2011    -0.0188 N.2     
  11 C11            0.0021    -0.0041     0.0020 C.3     
  12 C12           -1.4333    -0.5336     0.0129 C.3     
  13 C13           -1.4176    -2.0595    -0.1213 C.3     
  14 C14           -2.8519    -2.5868    -0.0304 C.3     
  15 O15           -3.4323    -2.1735     1.2084 O.3     
  16 C16           -3.5168    -0.7561     1.3691 C.3     
  17 C17           -2.1091    -0.1553     1.3344 C.3     
  18 Br18           5.1154     6.9957    -0.0098 Br      
  19 N19            2.7249     5.3565     0.0044 N.pl3   
  20 C20            1.8027     7.1289     1.4165 C.3     
  21 C21            1.8145     6.5042     0.0189 C.3     
  22 O22            2.2566     7.4753    -0.9317 O.3     
  23 C23            1.4201     8.6307    -1.0176 C.3     
  24 C24            1.3925     9.3408     0.3384 C.3     
  25 C25            0.8957     8.3633     1.4079 C.3     
  26 H26            4.5736     0.1618    -0.0401 H       
  27 H27            5.5079     1.5582    -0.0423 H       
  28 H28            0.5123    -0.3556    -0.8948 H       
  29 H29            0.5293    -0.3651     0.8851 H       
  30 H30           -1.9882    -0.1002    -0.8192 H       
  31 H31           -0.9882    -2.3360    -1.0842 H       
  32 H32           -0.8197    -2.4896     0.6822 H       
  33 H33           -3.4389    -2.1880    -0.8577 H       
  34 H34           -2.8430    -3.6755    -0.0823 H       
  35 H35           -4.1125    -0.3334     0.5600 H       
  36 H36           -3.9867    -0.5260     2.3253 H       
  37 H37           -1.5252    -0.5469     2.1673 H       
  38 H38           -2.1743     0.9300     1.4126 H       
  39 H39            1.4239     6.4035     2.1365 H       
  40 H40            2.8153     7.4229     1.6927 H       
  41 H41            0.8087     6.1736    -0.2400 H       
  42 H42            1.8134     9.3087    -1.7751 H       
  43 H43            0.4091     8.3280    -1.2901 H       
  44 H44            2.3968     9.6795     0.5927 H       
  45 H45            0.7203    10.1974     0.2873 H       
  46 H46           -0.1270     8.0627     1.1803 H       
  47 H47            0.9266     8.8453     2.3850 H       
@<TRIPOS>BOND
   1    1   11 1
   2    1    4 1
   3    2    3 ar
   4    2    4 ar
   5    3    8 1
   6    3    7 ar
   7    4    5 ar
   8    5    6 ar
   9    6    7 ar
  10    6   19 1
  11    7   10 1
  12    8   26 1
  13    8   27 1
  14    9   10 2
  15    9   18 1
  16    9   19 1
  17   11   12 1
  18   11   28 1
  19   11   29 1
  20   12   13 1
  21   12   17 1
  22   12   30 1
  23   13   14 1
  24   13   31 1
  25   13   32 1
  26   14   15 1
  27   14   33 1
  28   14   34 1
  29   15   16 1
  30   16   17 1
  31   16   35 1
  32   16   36 1
  33   17   37 1
  34   17   38 1
  35   19   21 1
  36   20   21 1
  37   20   25 1
  38   20   39 1
  39   20   40 1
  40   21   22 1
  41   21   41 1
  42   22   23 1
  43   23   24 1
  44   23   42 1
  45   23   43 1
  46   24   25 1
  47   24   44 1
  48   24   45 1
  49   25   46 1
  50   25   47 1

#	End of record

