#	Name: ASD01680060
#	Creating user name:	WinNT
#	Creation time:	15. 06. 2019 19:22

#	Modifying user name:	WinNT
#	Modification time:	15. 06. 2019 19:22

#	Program:	/corina/corina34_cracker 3.40 0067  02.08.2006

@<TRIPOS>MOLECULE
ASD01680060
  95   99    0    0    0
SMALL
NO_CHARGES


@<TRIPOS>ATOM
   1 N1            -0.4984    -1.5698    -2.3231 N.am    
   2 C2            -0.2148    -2.9368    -2.7965 C.3     
   3 C3             1.0705    -3.3592    -2.0419 C.3     
   4 C4             1.8645    -2.0265    -2.0090 C.3     
   5 C5             0.7546    -0.9669    -1.8454 C.3     
   6 C6            -1.7053    -0.9699    -2.3321 C.2     
   7 O7            -2.6556    -1.5248    -2.8473 O.2     
   8 O8            -1.8579     0.2440    -1.7702 O.3     
   9 C9            -1.3718    -3.8735    -2.4430 C.3     
  10 N10           -1.7138    -3.7146    -1.0274 N.pl3   
  11 C11           -2.7995    -4.3978    -0.4942 C.ar    
  12 C12           -3.5566    -5.2312    -1.3132 C.ar    
  13 C13           -4.6337    -5.9071    -0.7756 C.ar    
  14 C14           -4.9234    -5.7256     0.5818 C.ar    
  15 C15           -4.1209    -4.8759     1.3372 C.ar    
  16 N16           -3.0978    -4.2521     0.7879 N.ar    
  17 C17           -6.0706    -6.4291     1.2064 C.ar    
  18 C18           -6.3527    -6.2434     2.5584 C.ar    
  19 C19           -7.4211    -6.9004     3.1343 C.ar    
  20 C20           -8.2112    -7.7420     2.3721 C.ar    
  21 C21           -7.9357    -7.9300     1.0297 C.ar    
  22 C22           -6.8733    -7.2736     0.4420 C.ar    
  23 O23            2.7587    -1.9982    -0.8947 O.3     
  24 C24            3.9405    -1.2262    -1.1174 C.3     
  25 C25            4.8060    -1.2657     0.1156 C.2     
  26 N26            5.9798    -0.6037     0.1365 N.am    
  27 O27            4.4464    -1.8932     1.0892 O.2     
  28 C28            6.8213    -0.6422     1.3351 C.3     
  29 C29            8.0865     0.1844     1.0967 C.3     
  30 N30            7.7138     1.5409     0.6879 N.am    
  31 S31            8.6449     2.3603    -0.4093 S.o2    
  32 O32            8.0087     3.6135    -0.6189 O.2     
  33 O33            9.9895     2.2356     0.0330 O.2     
  34 C34            8.5405     1.4878    -1.9366 C.ar    
  35 C35            9.4332     0.4691    -2.2130 C.ar    
  36 C36            9.3514    -0.2154    -3.4112 C.ar    
  37 C37            8.3766     0.1185    -4.3328 C.ar    
  38 C38            7.4833     1.1365    -4.0559 C.ar    
  39 C39            7.5624     1.8181    -2.8559 C.ar    
  40 C40            6.5854     2.9245    -2.5519 C.3     
  41 C41            8.2880    -0.6271    -5.6394 C.3     
  42 C42           10.4959     0.1052    -1.2084 C.3     
  43 C43            8.8928     0.2467     2.3684 C.2     
  44 O44            9.1317     1.3146     2.8806 O.2     
  45 O45            9.3457    -0.8843     2.9319 O.3     
  46 C46           -3.1857     0.8298    -1.8169 C.3     
  47 C47           -3.1637     2.1782    -1.1443 C.ar    
  48 C48           -2.8886     3.3143    -1.8823 C.ar    
  49 C49           -2.8685     4.5511    -1.2653 C.ar    
  50 C50           -3.1239     4.6520     0.0895 C.ar    
  51 C51           -3.3999     3.5161     0.8272 C.ar    
  52 C52           -3.4243     2.2797     0.2095 C.ar    
  53 H53           -0.0404    -2.9372    -3.8724 H       
  54 H54            0.8372    -3.7000    -1.0332 H       
  55 H55            1.6147    -4.1246    -2.5951 H       
  56 H56            2.4058    -1.8770    -2.9432 H       
  57 H57            0.9927    -0.0857    -2.4411 H       
  58 H58            0.6568    -0.6916    -0.7953 H       
  59 H59           -2.2388    -3.6273    -3.0561 H       
  60 H60           -1.0747    -4.9051    -2.6315 H       
  61 H61           -1.1821    -3.1323    -0.4624 H       
  62 H62           -3.3044    -5.3474    -2.3569 H       
  63 H63           -5.2385    -6.5597    -1.3877 H       
  64 H64           -4.3364    -4.7290     2.3852 H       
  65 H65           -5.7362    -5.5869     3.1545 H       
  66 H66           -7.6404    -6.7575     4.1821 H       
  67 H67           -9.0460    -8.2544     2.8269 H       
  68 H68           -8.5559    -8.5882     0.4393 H       
  69 H69           -6.6621    -7.4174    -0.6073 H       
  70 H70            4.4915    -1.6406    -1.9616 H       
  71 H71            3.6647    -0.1943    -1.3348 H       
  72 H72            6.2675    -0.1019    -0.6422 H       
  73 H73            6.2702    -0.2278     2.1793 H       
  74 H74            7.0970    -1.6741     1.5525 H       
  75 H75            8.6820    -0.2811     0.3114 H       
  76 H76            6.9216     1.9592     1.0600 H       
  77 H77           10.0492    -1.0107    -3.6275 H       
  78 H78            6.7219     1.3975    -4.7760 H       
  79 H79            7.0453     3.8870    -2.7759 H       
  80 H80            5.6916     2.7979    -3.1627 H       
  81 H81            6.3128     2.8888    -1.4971 H       
  82 H82            7.6268    -1.4859    -5.5236 H       
  83 H83            7.8920     0.0350    -6.4094 H       
  84 H84            9.2810    -0.9697    -5.9303 H       
  85 H85           10.0632    -0.5304    -0.4359 H       
  86 H86           11.3020    -0.4302    -1.7101 H       
  87 H87           10.8912     1.0130    -0.7527 H       
  88 H88            9.8583    -0.7939     3.7469 H       
  89 H89           -3.4949     0.9468    -2.8555 H       
  90 H90           -3.8890     0.1772    -1.2997 H       
  91 H91           -2.6890     3.2355    -2.9407 H       
  92 H92           -2.6528     5.4386    -1.8417 H       
  93 H93           -3.1075     5.6183     0.5716 H       
  94 H94           -3.5992     3.5948     1.8858 H       
  95 H95           -3.6436     1.3926     0.7851 H       
@<TRIPOS>BOND
   1    1    2 1
   2    1    5 1
   3    1    6 am
   4    2    3 1
   5    2    9 1
   6    2   53 1
   7    3    4 1
   8    3   54 1
   9    3   55 1
  10    4    5 1
  11    4   23 1
  12    4   56 1
  13    5   57 1
  14    5   58 1
  15    6    7 2
  16    6    8 1
  17    8   46 1
  18    9   10 1
  19    9   59 1
  20    9   60 1
  21   10   11 1
  22   10   61 1
  23   11   12 ar
  24   11   16 ar
  25   12   13 ar
  26   12   62 1
  27   13   14 ar
  28   13   63 1
  29   14   15 ar
  30   14   17 1
  31   15   16 ar
  32   15   64 1
  33   17   18 ar
  34   17   22 ar
  35   18   19 ar
  36   18   65 1
  37   19   20 ar
  38   19   66 1
  39   20   21 ar
  40   20   67 1
  41   21   22 ar
  42   21   68 1
  43   22   69 1
  44   23   24 1
  45   24   25 1
  46   24   70 1
  47   24   71 1
  48   25   26 am
  49   25   27 2
  50   26   28 1
  51   26   72 1
  52   28   29 1
  53   28   73 1
  54   28   74 1
  55   29   30 1
  56   29   43 1
  57   29   75 1
  58   30   31 am
  59   30   76 1
  60   31   32 2
  61   31   33 2
  62   31   34 1
  63   34   35 ar
  64   34   39 ar
  65   35   36 ar
  66   35   42 1
  67   36   37 ar
  68   36   77 1
  69   37   38 ar
  70   37   41 1
  71   38   39 ar
  72   38   78 1
  73   39   40 1
  74   40   79 1
  75   40   80 1
  76   40   81 1
  77   41   82 1
  78   41   83 1
  79   41   84 1
  80   42   85 1
  81   42   86 1
  82   42   87 1
  83   43   44 2
  84   43   45 1
  85   45   88 1
  86   46   47 1
  87   46   89 1
  88   46   90 1
  89   47   48 ar
  90   47   52 ar
  91   48   49 ar
  92   48   91 1
  93   49   50 ar
  94   49   92 1
  95   50   51 ar
  96   50   93 1
  97   51   52 ar
  98   51   94 1
  99   52   95 1

#	End of record

