#	Name: ASD03540086
#	Creating user name:	WinNT
#	Creation time:	15. 06. 2019 20:42

#	Modifying user name:	WinNT
#	Modification time:	15. 06. 2019 20:42

#	Program:	/corina/corina34_cracker 3.40 0067  02.08.2006

@<TRIPOS>MOLECULE
ASD03540086
  43   45    0    0    0
SMALL
NO_CHARGES


@<TRIPOS>ATOM
   1 C1            -0.0179     1.4709     0.0101 C.2     
   2 C2             0.0021    -0.0041     0.0020 C.ar    
   3 C3             1.2183    -0.6844    -0.0132 C.ar    
   4 C4             1.2312    -2.0772    -0.0204 C.ar    
   5 C5             2.5132    -2.8053    -0.0360 C.2     
   6 C6             0.0183    -2.7856    -0.0121 C.ar    
   7 C7            -1.1880    -2.0968     0.0031 C.ar    
   8 C8            -1.2006    -0.7205     0.0155 C.ar    
   9 O9             1.0259     2.0926     0.0035 O.2     
  10 O10           -1.1938     2.1287     0.0193 O.3     
  11 O11            2.5219    -4.0203    -0.0423 O.2     
  12 O12            3.6753    -2.1233    -0.0435 O.3     
  13 O13            0.0249    -4.1401    -0.0195 O.3     
  14 C14           -1.2451    -4.7951    -0.0104 C.3     
  15 C15           -1.1375     3.5795     0.0269 C.3     
  16 C16           -3.3804     5.7108    -2.1413 C.ar    
  17 C17           -2.2457     5.2310    -1.5149 C.ar    
  18 C18           -2.3509     4.1330    -0.6748 C.ar    
  19 C19           -3.5990     3.5561    -0.4959 C.ar    
  20 C20           -4.6889     4.0908    -1.1563 C.ar    
  21 N21           -4.5516     5.1367    -1.9477 N.ar    
  22 C22           -0.3818     5.6246     3.1124 C.ar    
  23 C23           -0.3822     5.2010     1.7969 C.ar    
  24 C24           -1.1113     4.0738     1.4503 C.ar    
  25 C25           -1.8161     3.4123     2.4444 C.ar    
  26 C26           -1.7688     3.8951     3.7385 C.ar    
  27 N27           -1.0641     4.9704     4.0319 N.ar    
  28 H28            2.1473    -0.1337    -0.0199 H       
  29 H29           -2.1195    -2.6434     0.0090 H       
  30 H30           -2.1419    -0.1912     0.0315 H       
  31 H31            4.4900    -2.6442    -0.0537 H       
  32 H32           -1.8123    -4.5002    -0.8932 H       
  33 H33           -1.0971    -5.8750    -0.0177 H       
  34 H34           -1.7947    -4.5098     0.8866 H       
  35 H35           -0.2366     3.9109    -0.4894 H       
  36 H36           -3.3077     6.5684    -2.7937 H       
  37 H37           -1.2892     5.7054    -1.6776 H       
  38 H38           -3.7178     2.6995     0.1509 H       
  39 H39           -5.6645     3.6473    -1.0223 H       
  40 H40            0.1873     6.4991     3.3914 H       
  41 H41            0.1784     5.7412     1.0483 H       
  42 H42           -2.3950     2.5312     2.2103 H       
  43 H43           -2.3150     3.3856     4.5185 H       
@<TRIPOS>BOND
   1    1    2 1
   2    1    9 2
   3    1   10 1
   4    2    3 ar
   5    2    8 ar
   6    3    4 ar
   7    3   28 1
   8    4    5 1
   9    4    6 ar
  10    5   11 2
  11    5   12 1
  12    6    7 ar
  13    6   13 1
  14    7    8 ar
  15    7   29 1
  16    8   30 1
  17   10   15 1
  18   12   31 1
  19   13   14 1
  20   14   32 1
  21   14   33 1
  22   14   34 1
  23   15   18 1
  24   15   24 1
  25   15   35 1
  26   16   17 ar
  27   16   21 ar
  28   16   36 1
  29   17   18 ar
  30   17   37 1
  31   18   19 ar
  32   19   20 ar
  33   19   38 1
  34   20   21 ar
  35   20   39 1
  36   22   23 ar
  37   22   27 ar
  38   22   40 1
  39   23   24 ar
  40   23   41 1
  41   24   25 ar
  42   25   26 ar
  43   25   42 1
  44   26   27 ar
  45   26   43 1

#	End of record

