#	Name: ASD01810158
#	Creating user name:	WinNT
#	Creation time:	15. 06. 2019 19:23

#	Modifying user name:	WinNT
#	Modification time:	15. 06. 2019 19:23

#	Program:	/corina/corina34_cracker 3.40 0067  02.08.2006

@<TRIPOS>MOLECULE
ASD01810158
  38   40    0    0    0
SMALL
NO_CHARGES


@<TRIPOS>ATOM
   1 C1            -0.0739     1.3179     0.1616 C.ar    
   2 C2            -0.0306    -0.0687     0.1503 C.ar    
   3 C3             1.1755    -0.7352     0.0857 C.ar    
   4 C4             2.3673    -0.0133     0.0311 C.ar    
   5 C5             2.3188     1.3906     0.0429 C.ar    
   6 C6             1.0915     2.0503     0.1085 C.ar    
   7 N7             3.5798    -0.6667    -0.0326 N.pl3   
   8 C8             4.7507    -0.0197    -0.0852 C.2     
   9 C9             4.8304     1.3585    -0.0795 C.2     
  10 C10            3.5864     2.1424    -0.0154 C.2     
  11 O11            3.6032     3.3607    -0.0080 O.2     
  12 C12            6.1356     2.0317    -0.1375 C.2     
  13 O13            6.2004     3.3782    -0.1313 O.3     
  14 O14            7.1568     1.3743    -0.1911 O.2     
  15 C15            3.5871    -2.1316    -0.0427 C.3     
  16 C16            3.7169    -2.6430     1.3689 C.ar    
  17 C17            2.5922    -2.7645     2.1652 C.ar    
  18 C18            2.7028    -3.2329     3.4626 C.ar    
  19 C19            3.9368    -3.5822     3.9702 C.ar    
  20 C20            5.0757    -3.4625     3.1718 C.ar    
  21 C21            4.9566    -2.9944     1.8625 C.ar    
  22 F22            1.2020    -2.0859     0.0759 F       
  23 C23            6.4017    -3.8346     3.7095 C.2     
  24 N24            6.5129    -4.2907     4.9729 N.am    
  25 O25            7.3917    -3.7293     3.0120 O.2     
  26 H26           -1.0260     1.8256     0.2079 H       
  27 H27           -0.9509    -0.6323     0.1927 H       
  28 H28            1.0551     3.1297     0.1171 H       
  29 H29            5.6633    -0.5952    -0.1334 H       
  30 H30            7.0811     3.7755    -0.1708 H       
  31 H31            2.6565    -2.4966    -0.4772 H       
  32 H32            4.4292    -2.4867    -0.6366 H       
  33 H33            1.6236    -2.4923     1.7726 H       
  34 H34            1.8209    -3.3247     4.0793 H       
  35 H35            4.0218    -3.9473     4.9830 H       
  36 H36            5.8338    -2.8998     1.2396 H       
  37 H37            5.7229    -4.3747     5.5294 H       
  38 H38            7.3829    -4.5349     5.3256 H       
@<TRIPOS>BOND
   1    1    2 ar
   2    1    6 ar
   3    1   26 1
   4    2    3 ar
   5    2   27 1
   6    3    4 ar
   7    3   22 1
   8    4    5 ar
   9    4    7 1
  10    5    6 ar
  11    5   10 1
  12    6   28 1
  13    7    8 1
  14    7   15 1
  15    8    9 2
  16    8   29 1
  17    9   10 1
  18    9   12 1
  19   10   11 2
  20   12   13 1
  21   12   14 2
  22   13   30 1
  23   15   16 1
  24   15   31 1
  25   15   32 1
  26   16   17 ar
  27   16   21 ar
  28   17   18 ar
  29   17   33 1
  30   18   19 ar
  31   18   34 1
  32   19   20 ar
  33   19   35 1
  34   20   21 ar
  35   20   23 1
  36   21   36 1
  37   23   24 am
  38   23   25 2
  39   24   37 1
  40   24   38 1

#	End of record

