#	Name: ASD01880852
#	Creating user name:	WinNT
#	Creation time:	15. 06. 2019 19:41

#	Modifying user name:	WinNT
#	Modification time:	15. 06. 2019 19:41

#	Program:	/corina/corina34_cracker 3.40 0067  02.08.2006

@<TRIPOS>MOLECULE
ASD01880852
  66   69    0    0    0
SMALL
NO_CHARGES


@<TRIPOS>ATOM
   1 N1             0.0000     1.3091    -0.2102 N.ar    
   2 C2             0.0278    -0.0078    -0.2351 C.ar    
   3 N3             1.1415    -0.6836    -0.0357 N.ar    
   4 C4             2.2865    -0.0587     0.1996 C.ar    
   5 C5             2.3058     1.3219     0.2351 C.ar    
   6 C6             1.1085     2.0071     0.0197 C.ar    
   7 C7             3.5871     2.0699     0.4995 C.3     
   8 O8             4.3110     2.2218    -0.7232 O.3     
   9 C9             5.4970     2.8784    -0.6595 C.ar    
  10 C10            6.2530     3.0614    -1.8132 C.ar    
  11 C11            7.4523     3.7262    -1.7475 C.ar    
  12 C12            7.9207     4.2221    -0.5263 C.ar    
  13 C13            7.1572     4.0360     0.6294 C.ar    
  14 C14            5.9525     3.3726     0.5570 C.ar    
  15 C15            8.4911     4.0868    -2.7800 C.3     
  16 N16            9.5505     4.8045    -2.0620 N.am    
  17 C17            9.2174     4.8803    -0.7621 C.2     
  18 O18            9.8903     5.4163     0.0971 O.2     
  19 N19            1.0758     3.3919     0.0448 N.3     
  20 C20           -0.1715     3.8785     0.6520 C.3     
  21 C21           -0.1399     5.4079     0.7139 C.3     
  22 O22            0.0606     5.9292    -0.6027 O.3     
  23 C23            1.2666     5.4762    -1.2238 C.3     
  24 C24            1.2492     3.9474    -1.3053 C.3     
  25 C25            7.2437     6.0323     2.0979 C.3     
  26 C26            7.6494     4.5643     1.9522 C.3     
  27 C27           10.5172     6.7867    -3.1194 C.3     
  28 C28           10.7708     5.3485    -2.6629 C.3     
  29 C29           -1.4094    -0.9855    -2.0037 C.3     
  30 C30           -1.2498    -0.7626    -0.4984 C.3     
  31 C31            4.2537    -1.0793    -0.9130 C.3     
  32 C32            3.5519    -0.8451     0.4263 C.3     
  33 H33            3.3558     3.0531     0.9093 H       
  34 H34            4.1928     1.5119     1.2135 H       
  35 H35            5.8970     2.6805    -2.7591 H       
  36 H36            5.3628     3.2294     1.4504 H       
  37 H37            8.8943     3.1832    -3.2374 H       
  38 H38            8.0534     4.7304    -3.5431 H       
  39 H39           -1.0201     3.5561     0.0486 H       
  40 H40           -0.2669     3.4753     1.6602 H       
  41 H41           -1.0861     5.7758     1.1108 H       
  42 H42            0.6764     5.7292     1.3608 H       
  43 H43            1.3377     5.8934    -2.2283 H       
  44 H44            2.1238     5.7994    -0.6332 H       
  45 H45            2.1909     3.5946    -1.7258 H       
  46 H46            0.4234     3.6262    -1.9400 H       
  47 H47            7.5997     6.4144     3.0546 H       
  48 H48            7.6848     6.6132     1.2878 H       
  49 H49            6.1577     6.1152     2.0549 H       
  50 H50            7.2083     3.9834     2.7622 H       
  51 H51            8.7353     4.4814     1.9951 H       
  52 H52            9.7135     6.7978    -3.8556 H       
  53 H53           10.2323     7.3953    -2.2612 H       
  54 H54           11.4252     7.1914    -3.5665 H       
  55 H55           11.5746     5.3374    -1.9267 H       
  56 H56           11.0558     4.7399    -3.5211 H       
  57 H57           -1.4453    -0.0219    -2.5119 H       
  58 H58           -0.5632    -1.5620    -2.3774 H       
  59 H59           -2.3334    -1.5314    -2.1942 H       
  60 H60           -1.2139    -1.7262     0.0098 H       
  61 H61           -2.0960    -0.1861    -0.1248 H       
  62 H62            5.1689    -1.6481    -0.7491 H       
  63 H63            3.5931    -1.6372    -1.5767 H       
  64 H64            4.4990    -0.1193    -1.3674 H       
  65 H65            4.2125    -0.2872     1.0899 H       
  66 H66            3.3067    -1.8051     0.8806 H       
@<TRIPOS>BOND
   1    1    2 ar
   2    1    6 ar
   3    2    3 ar
   4    2   30 1
   5    3    4 ar
   6    4    5 ar
   7    4   32 1
   8    5    6 ar
   9    5    7 1
  10    6   19 1
  11    7    8 1
  12    7   33 1
  13    7   34 1
  14    8    9 1
  15    9   10 ar
  16    9   14 ar
  17   10   11 ar
  18   10   35 1
  19   11   12 ar
  20   11   15 1
  21   12   13 ar
  22   12   17 1
  23   13   14 ar
  24   13   26 1
  25   14   36 1
  26   15   16 1
  27   15   37 1
  28   15   38 1
  29   16   17 am
  30   16   28 1
  31   17   18 2
  32   19   20 1
  33   19   24 1
  34   20   21 1
  35   20   39 1
  36   20   40 1
  37   21   22 1
  38   21   41 1
  39   21   42 1
  40   22   23 1
  41   23   24 1
  42   23   43 1
  43   23   44 1
  44   24   45 1
  45   24   46 1
  46   25   26 1
  47   25   47 1
  48   25   48 1
  49   25   49 1
  50   26   50 1
  51   26   51 1
  52   27   28 1
  53   27   52 1
  54   27   53 1
  55   27   54 1
  56   28   55 1
  57   28   56 1
  58   29   30 1
  59   29   57 1
  60   29   58 1
  61   29   59 1
  62   30   60 1
  63   30   61 1
  64   31   32 1
  65   31   62 1
  66   31   63 1
  67   31   64 1
  68   32   65 1
  69   32   66 1

#	End of record

