#	Name: ASD02039270
#	Creating user name:	WinNT
#	Creation time:	15. 06. 2019 20:18

#	Modifying user name:	WinNT
#	Modification time:	15. 06. 2019 20:18

#	Program:	/corina/corina34_cracker 3.40 0067  02.08.2006

@<TRIPOS>MOLECULE
ASD02039270
  56   57    0    0    0
SMALL
NO_CHARGES


@<TRIPOS>ATOM
   1 C1             5.0016    -3.4963    -0.5686 C.2     
   2 N2             3.7050    -3.5287    -0.4576 N.2     
   3 C3             3.2392    -2.2560    -0.3791 C.2     
   4 C4             4.3150    -1.4198    -0.4467 C.2     
   5 N5             5.4136    -2.2019    -0.5651 N.pl3   
   6 C6             1.8289    -1.8516    -0.2451 C.2     
   7 O7             1.5387    -0.6728    -0.1711 O.2     
   8 N8             0.8603    -2.7878    -0.2046 N.am    
   9 C9             6.7985    -1.7358    -0.6706 C.3     
  10 C10            1.2001    -4.2016    -0.3836 C.3     
  11 C11            0.4635    -6.1377     2.7852 C.ar    
  12 C12            0.2894    -5.5438     1.5366 C.ar    
  13 C13            1.3466    -4.8577     0.9652 C.ar    
  14 C14            2.5450    -4.7876     1.6618 C.ar    
  15 C15            2.6481    -5.4002     2.8968 C.ar    
  16 N16            1.6257    -6.0474     3.4184 N.ar    
  17 C17           -0.6617    -6.8715     3.4140 C.ar    
  18 C18           -0.4955    -7.4681     4.6625 C.ar    
  19 C19           -1.5487    -8.1512     5.2450 C.ar    
  20 C20           -2.7691    -8.2409     4.5847 C.ar    
  21 C21           -2.9340    -7.6484     3.3449 C.ar    
  22 C22           -1.8891    -6.9609     2.7604 C.ar    
  23 F23           -3.7962    -8.9085     5.1545 F       
  24 O24           -1.3900    -8.7348     6.4627 O.3     
  25 C25           -0.1095    -8.6032     7.0832 C.3     
  26 F26            0.8678    -9.1754     6.2619 F       
  27 F27            0.1783    -7.2477     7.2757 F       
  28 C28           -0.5324    -2.3918     0.0184 C.3     
  29 C29           -0.7329    -1.5237     1.2718 C.3     
  30 C30           -1.7311    -0.6973     0.4438 C.3     
  31 C31           -0.9634    -1.1657    -0.8037 C.3     
  32 H32            5.6461    -4.3594    -0.6462 H       
  33 H33            4.2941    -0.3405    -0.4129 H       
  34 H34            7.0535    -1.5889    -1.7201 H       
  35 H35            6.9062    -0.7925    -0.1351 H       
  36 H36            7.4662    -2.4791    -0.2351 H       
  37 H37            0.4081    -4.6974    -0.9448 H       
  38 H38            2.1391    -4.2831    -0.9312 H       
  39 H39           -0.6572    -5.6184     1.0220 H       
  40 H40            3.3890    -4.2599     1.2429 H       
  41 H41            3.5792    -5.3475     3.4414 H       
  42 H42            0.4530    -7.3979     5.1741 H       
  43 H43           -3.8834    -7.7207     2.8352 H       
  44 H44           -2.0219    -6.4957     1.7948 H       
  45 H45           -0.1185    -9.1131     8.0466 H       
  46 H46           -1.2266    -3.2296    -0.0481 H       
  47 H47           -1.1922    -2.0575     2.1037 H       
  48 H48            0.1575    -0.9673     1.5645 H       
  49 H49           -2.7538    -1.0710     0.4929 H       
  50 H50           -1.6626     0.3759     0.6213 H       
  51 H51           -0.1360    -0.5114    -1.0784 H       
  52 H52           -1.6088    -1.4105    -1.6473 H       
  53 Cl53          12.4662     5.3759    13.0466 Cl      
  54 H54           12.4662     6.7459    13.0466 H       
  55 Cl55          17.4662    11.7459    18.0466 Cl      
  56 H56           17.4662    13.1159    18.0466 H       
@<TRIPOS>BOND
   1    1    2 2
   2    1    5 1
   3    1   32 1
   4    2    3 1
   5    3    4 2
   6    3    6 1
   7    4    5 1
   8    4   33 1
   9    5    9 1
  10    6    7 2
  11    6    8 am
  12    8   10 1
  13    8   28 1
  14    9   34 1
  15    9   35 1
  16    9   36 1
  17   10   13 1
  18   10   37 1
  19   10   38 1
  20   11   12 ar
  21   11   16 ar
  22   11   17 1
  23   12   13 ar
  24   12   39 1
  25   13   14 ar
  26   14   15 ar
  27   14   40 1
  28   15   16 ar
  29   15   41 1
  30   17   18 ar
  31   17   22 ar
  32   18   19 ar
  33   18   42 1
  34   19   20 ar
  35   19   24 1
  36   20   21 ar
  37   20   23 1
  38   21   22 ar
  39   21   43 1
  40   22   44 1
  41   24   25 1
  42   25   26 1
  43   25   27 1
  44   25   45 1
  45   28   29 1
  46   28   31 1
  47   28   46 1
  48   29   30 1
  49   29   47 1
  50   29   48 1
  51   30   31 1
  52   30   49 1
  53   30   50 1
  54   31   51 1
  55   31   52 1
  56   53   54 1
  57   55   56 1

#	End of record

