#	Name: ASD02030666
#	Creating user name:	WinNT
#	Creation time:	15. 06. 2019 20:15

#	Modifying user name:	WinNT
#	Modification time:	15. 06. 2019 20:15

#	Program:	/corina/corina34_cracker 3.40 0067  02.08.2006

@<TRIPOS>MOLECULE
ASD02030666
  41   44    0    0    0
SMALL
NO_CHARGES


@<TRIPOS>ATOM
   1 C1            -0.0187     1.3372     0.2136 C.2     
   2 N2             0.0008    -0.0085     0.1051 N.am    
   3 N3             2.3466    -0.0104     0.1862 N.2     
   4 C4             2.3750     1.3087     0.2928 C.2     
   5 C5             1.1953     2.0269     0.3109 C.2     
   6 C6             1.1953    -0.6734     0.0928 C.2     
   7 O7            -1.0785     1.9432     0.2216 O.2     
   8 C8             3.6956     2.0273     0.3972 C.3     
   9 N9             4.1328     2.0450     1.7953 N.pl3   
  10 C10            4.3942     2.7019     3.8740 C.2     
  11 N11            3.8280     3.0318     2.7416 N.2     
  12 C12            4.8957     1.1103     2.4006 C.2     
  13 C13            5.0743     1.4942     3.6874 C.2     
  14 C14            4.3234     3.4866     5.1587 C.3     
  15 Cl15           5.5329    -0.3261     1.6628 Cl      
  16 F16            3.4600     4.5749     4.9934 F       
  17 F17            3.8443     2.6625     6.1827 F       
  18 F18            5.6002     3.9508     5.4926 F       
  19 C19           -1.1720    -0.6940     0.0096 C.2     
  20 C20           -1.1780    -2.0416    -0.0995 C.2     
  21 C21            0.0304    -2.7522    -0.1161 C.2     
  22 C22            1.2095    -2.0758    -0.0191 C.2     
  23 C23           -2.4779     0.0579     0.0263 C.3     
  24 C24           -2.9857     0.6213    -1.3025 C.3     
  25 C25           -3.6752    -0.5902    -0.6719 C.3     
  26 C26           -2.1612     0.3875    -2.4993 C.1     
  27 N27           -1.5249     0.2071    -3.4229 N.1     
  28 C28            0.0255    -4.2542    -0.2377 C.3     
  29 H29            1.2094     3.1033     0.3984 H       
  30 H30            4.4393     1.5107    -0.2096 H       
  31 H31            3.5817     3.0505     0.0391 H       
  32 H32            5.6416     0.9618     4.4365 H       
  33 H33           -2.1158    -2.5719    -0.1737 H       
  34 H34            2.1472    -2.6115    -0.0310 H       
  35 H35           -2.6744     0.6390     0.9273 H       
  36 H36           -3.5165     1.5730    -1.2756 H       
  37 H37           -3.5183    -1.5604    -1.1433 H       
  38 H38           -4.6596    -0.4356    -0.2302 H       
  39 H39            0.0589    -4.5336    -1.2908 H       
  40 H40            0.8964    -4.6631     0.2744 H       
  41 H41           -0.8825    -4.6524     0.2151 H       
@<TRIPOS>BOND
   1    1    2 am
   2    1    5 1
   3    1    7 2
   4    2    6 1
   5    2   19 1
   6    3    4 1
   7    3    6 2
   8    4    5 2
   9    4    8 1
  10    5   29 1
  11    6   22 1
  12    8    9 1
  13    8   30 1
  14    8   31 1
  15    9   12 1
  16    9   11 1
  17   10   11 2
  18   10   13 1
  19   10   14 1
  20   12   13 2
  21   12   15 1
  22   13   32 1
  23   14   16 1
  24   14   17 1
  25   14   18 1
  26   19   20 2
  27   19   23 1
  28   20   21 1
  29   20   33 1
  30   21   22 2
  31   21   28 1
  32   22   34 1
  33   23   24 1
  34   23   25 1
  35   23   35 1
  36   24   25 1
  37   24   26 1
  38   24   36 1
  39   25   37 1
  40   25   38 1
  41   26   27 3
  42   28   39 1
  43   28   40 1
  44   28   41 1

#	End of record

