#	Name: ASD01811195
#	Creating user name:	WinNT
#	Creation time:	15. 06. 2019 19:26

#	Modifying user name:	WinNT
#	Modification time:	15. 06. 2019 19:26

#	Program:	/corina/corina34_cracker 3.40 0067  02.08.2006

@<TRIPOS>MOLECULE
ASD01811195
  59   62    0    0    0
SMALL
NO_CHARGES


@<TRIPOS>ATOM
   1 C1             0.1497     1.5108    -0.2293 C.2     
   2 C2             0.1540     0.0333    -0.1715 C.ar    
   3 C3             1.3335    -0.6736    -0.4182 C.ar    
   4 C4             1.3390    -2.0531    -0.3651 C.ar    
   5 C5             0.1805    -2.7435    -0.0679 C.ar    
   6 C6            -1.0055    -2.0492     0.1808 C.ar    
   7 C7            -1.0168    -0.6567     0.1345 C.ar    
   8 O8             1.1922     2.1159    -0.3859 O.2     
   9 N9            -1.0108     2.1863    -0.1138 N.am    
  10 N10           -1.0147     3.5513    -0.1672 N.3     
  11 C11            0.1960    -4.2494    -0.0122 C.3     
  12 C12           -0.1883    -4.8143    -1.3812 C.3     
  13 C13            2.6025     0.0714    -0.7433 C.3     
  14 C14            3.7388     0.0114     0.2795 C.3     
  15 C15            3.8535    -0.7588    -1.0375 C.3     
  16 C16           -2.2451    -2.7900     0.4983 C.2     
  17 O17           -2.6640    -3.6322    -0.2716 O.2     
  18 N18           -2.9105    -2.5316     1.6415 N.am    
  19 C19           -4.0890    -3.3244     2.0174 C.3     
  20 C20           -3.8817    -3.8760     3.4314 C.3     
  21 C21           -3.5716    -2.7200     4.3852 C.3     
  22 C22           -2.2817    -2.0244     3.9441 C.3     
  23 C23           -2.4676    -1.4555     2.5386 C.3     
  24 F24           -4.6271    -1.8020     4.3635 F       
  25 C25           -3.4006    -3.2549     5.7836 C.ar    
  26 C26           -3.4236    -2.3867     6.8607 C.ar    
  27 C27           -3.2676    -2.8696     8.1434 C.ar    
  28 C28           -3.0867    -4.2381     8.3535 C.ar    
  29 C29           -3.0649    -5.1087     7.2620 C.ar    
  30 C30           -3.2269    -4.6128     5.9850 C.ar    
  31 C31           -2.9237    -4.7464     9.6823 C.1     
  32 N32           -2.7944    -5.1496    10.7364 N.1     
  33 H33            2.2534    -2.5948    -0.5573 H       
  34 H34           -1.9302    -0.1148     0.3304 H       
  35 H35           -1.8432     1.7033     0.0072 H       
  36 H36           -1.9508     3.9144    -0.0669 H       
  37 H37           -0.3986     3.9422     0.5298 H       
  38 H38            1.1954    -4.5928     0.2550 H       
  39 H39           -0.5183    -4.5927     0.7361 H       
  40 H40           -0.1771    -5.9035    -1.3409 H       
  41 H41           -1.1877    -4.4709    -1.6484 H       
  42 H42            0.5260    -4.4711    -2.1295 H       
  43 H43            2.4730     1.0009    -1.2977 H       
  44 H44            4.3571     0.9012     0.3977 H       
  45 H45            3.5685    -0.5670     1.1876 H       
  46 H46            3.7586    -1.8439    -0.9959 H       
  47 H47            4.5473    -0.3757    -1.7858 H       
  48 H48           -4.9763    -2.6917     1.9984 H       
  49 H49           -4.2119    -4.1508     1.3172 H       
  50 H50           -4.7876    -4.3855     3.7597 H       
  51 H51           -3.0488    -4.5791     3.4292 H       
  52 H52           -2.0490    -1.2160     4.6372 H       
  53 H53           -1.4639    -2.7450     3.9370 H       
  54 H54           -1.5211    -1.0491     2.1822 H       
  55 H55           -3.2200    -0.6673     2.5630 H       
  56 H56           -3.5636    -1.3284     6.6967 H       
  57 H57           -3.2851    -2.1907     8.9832 H       
  58 H58           -2.9254    -6.1683     7.4175 H       
  59 H59           -3.2144    -5.2855     5.1402 H       
@<TRIPOS>BOND
   1    1    2 1
   2    1    8 2
   3    1    9 am
   4    2    3 ar
   5    2    7 ar
   6    3    4 ar
   7    3   13 1
   8    4    5 ar
   9    4   33 1
  10    5    6 ar
  11    5   11 1
  12    6    7 ar
  13    6   16 1
  14    7   34 1
  15    9   10 1
  16    9   35 1
  17   10   36 1
  18   10   37 1
  19   11   12 1
  20   11   38 1
  21   11   39 1
  22   12   40 1
  23   12   41 1
  24   12   42 1
  25   13   14 1
  26   13   15 1
  27   13   43 1
  28   14   15 1
  29   14   44 1
  30   14   45 1
  31   15   46 1
  32   15   47 1
  33   16   17 2
  34   16   18 am
  35   18   19 1
  36   18   23 1
  37   19   20 1
  38   19   48 1
  39   19   49 1
  40   20   21 1
  41   20   50 1
  42   20   51 1
  43   21   22 1
  44   21   24 1
  45   21   25 1
  46   22   23 1
  47   22   52 1
  48   22   53 1
  49   23   54 1
  50   23   55 1
  51   25   26 ar
  52   25   30 ar
  53   26   27 ar
  54   26   56 1
  55   27   28 ar
  56   27   57 1
  57   28   29 ar
  58   28   31 1
  59   29   30 ar
  60   29   58 1
  61   30   59 1
  62   31   32 3

#	End of record

