#	Name: ASD01420002
#	Creating user name:	WinNT
#	Creation time:	15. 06. 2019 19:20

#	Modifying user name:	WinNT
#	Modification time:	15. 06. 2019 19:20

#	Program:	/corina/corina34_cracker 3.40 0067  02.08.2006

@<TRIPOS>MOLECULE
ASD01420002
  31   33    0    0    0
SMALL
NO_CHARGES


@<TRIPOS>ATOM
   1 C1            -0.0144     1.2117     0.0087 C.2     
   2 O2             0.1283     0.0136     0.1589 O.2     
   3 C3             2.4668     1.5820    -0.1572 C.3     
   4 N4             1.0613     1.9985    -0.1919 N.am    
   5 C5             1.0501     3.4348    -0.4871 C.3     
   6 C6             2.4821     3.8843    -0.6316 C.ar    
   7 C7             3.0241     5.1281    -0.9069 C.ar    
   8 C8             4.3943     5.2840    -0.9888 C.ar    
   9 C9             5.2258     4.1966    -0.7951 C.ar    
  10 C10            4.6855     2.9553    -0.5200 C.ar    
  11 C11            3.3125     2.7983    -0.4382 C.ar    
  12 C12           -1.3656     1.8033     0.0399 C.ar    
  13 C13           -2.2659     1.4510     1.0548 C.ar    
  14 C14           -3.5332     2.0132     1.0752 C.ar    
  15 C15           -3.9060     2.9165     0.0994 C.ar    
  16 C16           -3.0191     3.2678    -0.9061 C.ar    
  17 C17           -1.7527     2.7220    -0.9383 C.ar    
  18 O18           -1.8990     0.5632     2.0129 O.3     
  19 Cl19          -3.5017     4.4046    -2.1261 Cl      
  20 H20            2.7096     1.1828     0.8276 H       
  21 H21            2.6462     0.8233    -0.9189 H       
  22 H22            0.5102     3.6168    -1.4164 H       
  23 H23            0.5736     3.9762     0.3301 H       
  24 H24            2.3748     5.9777    -1.0582 H       
  25 H25            4.8157     6.2548    -1.2043 H       
  26 H26            6.2971     4.3174    -0.8593 H       
  27 H27            5.3353     2.1059    -0.3691 H       
  28 H28           -4.2299     1.7441     1.8553 H       
  29 H29           -4.8944     3.3513     0.1196 H       
  30 H30           -1.0631     3.0015    -1.7210 H       
  31 H31           -1.4900     0.9692     2.7894 H       
@<TRIPOS>BOND
   1    1    2 2
   2    1    4 am
   3    1   12 1
   4    3    4 1
   5    3   11 1
   6    3   20 1
   7    3   21 1
   8    4    5 1
   9    5    6 1
  10    5   22 1
  11    5   23 1
  12    6    7 ar
  13    6   11 ar
  14    7    8 ar
  15    7   24 1
  16    8    9 ar
  17    8   25 1
  18    9   10 ar
  19    9   26 1
  20   10   11 ar
  21   10   27 1
  22   12   13 ar
  23   12   17 ar
  24   13   14 ar
  25   13   18 1
  26   14   15 ar
  27   14   28 1
  28   15   16 ar
  29   15   29 1
  30   16   17 ar
  31   16   19 1
  32   17   30 1
  33   18   31 1

#	End of record

