#	Name: ASD05143037
#	Creating user name:	WinNT
#	Creation time:	15. 06. 2019 20:57

#	Modifying user name:	WinNT
#	Modification time:	15. 06. 2019 20:57

#	Program:	/corina/corina34_cracker 3.40 0067  02.08.2006

@<TRIPOS>MOLECULE
ASD05143037
 153  156    0    0    0
SMALL
NO_CHARGES


@<TRIPOS>ATOM
   1 C1            -2.0929     5.4264     7.5529 C.2     
   2 C2            -1.6057     4.6921     8.7753 C.3     
   3 N3            -1.2063     5.9597     6.6892 N.am    
   4 O4            -3.2827     5.5331     7.3437 O.2     
   5 C5            -1.6799     6.6736     5.5008 C.3     
   6 C6            -2.5147     5.7269     4.6361 C.3     
   7 C7            -2.5270     7.8462     5.9235 C.2     
   8 C8            -1.6236     4.6025     4.1045 C.3     
   9 C9            -2.4584     3.6557     3.2397 C.3     
  10 N10           -1.6051     2.5791     2.7307 N.pl3   
  11 C11           -2.1389     1.6019     1.9244 C.2     
  12 N12           -1.3382     0.5915     1.4467 N.pl3   
  13 N13           -3.4042     1.6332     1.6128 N.2     
  14 O14           -3.0181     7.8711     7.0321 O.2     
  15 N15           -2.7388     8.8671     5.0695 N.am    
  16 C16           -3.5622    10.0070     5.4804 C.3     
  17 C17           -2.6588    11.1990     5.8025 C.3     
  18 C18           -1.5015    10.7375     6.6903 C.3     
  19 C19           -0.3616    10.2650     5.8254 C.2     
  20 O20           -0.5656     9.5316     4.8812 O.2     
  21 N21            0.9059    10.6783     6.1241 N.am    
  22 C22            1.9680    10.1639     5.2297 C.3     
  23 C23            2.1167    11.1204     4.0449 C.3     
  24 C24            2.7785    10.3859     2.8771 C.3     
  25 C25            3.7360    11.3350     2.1538 C.3     
  26 N26            3.6825    11.0530     0.7052 N.am    
  27 C27            5.1392    11.1184     2.6589 C.2     
  28 N28            5.5284    11.6707     3.8251 N.am    
  29 O29            5.9183    10.4470     2.0161 O.2     
  30 C30            2.8554    11.8387    -0.0371 C.2     
  31 O31            2.2123    12.7223     0.4888 O.2     
  32 C32            2.7492    11.5972    -1.5208 C.3     
  33 N33            1.5339    12.2783    -2.0233 N.am    
  34 C34            3.9840    12.1648    -2.2235 C.3     
  35 C35            0.4803    11.4578    -2.3122 C.2     
  36 O36            0.5721    10.2580    -2.1611 O.2     
  37 C37           -0.7981    12.0720    -2.8217 C.3     
  38 N38           -1.9245    11.1802    -2.4813 N.am    
  39 C39           -1.0085    13.4374    -2.1641 C.3     
  40 C40           -3.0283    11.7702    -1.9457 C.2     
  41 O41           -3.0575    12.9688    -1.7624 O.2     
  42 C42           -4.2136    10.9127    -1.5843 C.3     
  43 C43            3.9339    11.8144    -3.6884 C.2     
  44 C44            3.2343    12.5581    -4.7388 C.ar    
  45 C45            3.4706    11.8565    -5.9349 C.ar    
  46 N46            4.2560    10.7703    -5.6203 N.pl3   
  47 C47            4.5267    10.7648    -4.2790 C.2     
  48 C48            2.4576    13.7183    -4.7533 C.ar    
  49 C49            1.9302    14.1667    -5.9313 C.ar    
  50 C50            2.1601    13.4776    -7.1144 C.ar    
  51 C51            2.9240    12.3314    -7.1229 C.ar    
  52 N52           -4.7976    11.4183    -0.3210 N.am    
  53 C53           -3.7604     9.4635    -1.3963 C.3     
  54 C54           -4.9586     8.5954    -1.1106 C.ar    
  55 C55           -5.9886     8.5175    -2.0294 C.ar    
  56 C56           -7.0911     7.7198    -1.7682 C.ar    
  57 C57           -7.1584     6.9984    -0.5802 C.ar    
  58 C58           -6.1225     7.0810     0.3365 C.ar    
  59 C59           -5.0229     7.8743     0.0672 C.ar    
  60 C60           -4.5020    10.3772     4.3617 C.2     
  61 N61           -3.9865    10.8606     3.1982 N.am    
  62 O62           -5.7001    10.2458     4.4961 O.2     
  63 C63           -4.9557    11.2063     2.1392 C.3     
  64 C64           -5.1773    12.7201     2.1214 C.3     
  65 C65           -4.4028    10.7613     0.8098 C.2     
  66 C66           -5.8387    13.1542     3.4309 C.3     
  67 N67           -6.0515    14.6076     3.4138 N.3     
  68 O68           -3.6215     9.8359     0.7450 O.2     
  69 C69           -1.0165    13.2750    -0.6428 C.3     
  70 C70           -1.3735    14.6114     0.0109 C.3     
  71 N71           -1.3812    14.4559     1.4676 N.pl3   
  72 C72           -1.6773    15.5307     2.2722 C.2     
  73 N73           -1.6846    15.3847     3.6392 N.pl3   
  74 N74           -1.9512    16.6880     1.7389 N.2     
  75 O75           -8.2385     6.2145    -0.3191 O.3     
  76 C76           -8.2393     5.5028     0.9200 C.3     
  77 O77           -8.1054     7.6424    -2.6708 O.3     
  78 C78           -7.9685     8.4105    -3.8680 C.3     
  79 H79           -0.5158     4.6955     8.7909 H       
  80 H80           -1.9834     5.1861     9.6705 H       
  81 H81           -1.9654     3.6635     8.7488 H       
  82 H82           -0.2546     5.8709     6.8544 H       
  83 H83           -0.8250     7.0311     4.9269 H       
  84 H84           -3.3186     5.3005     5.2361 H       
  85 H85           -2.9404     6.2798     3.7987 H       
  86 H86           -0.8197     5.0289     3.5044 H       
  87 H87           -1.1979     4.0495     4.9418 H       
  88 H88           -3.2623     3.2293     3.8398 H       
  89 H89           -2.8840     4.2087     2.4024 H       
  90 H90           -0.6635     2.5558     2.9626 H       
  91 H91           -0.3966     0.5682     1.6786 H       
  92 H92           -1.7148    -0.0980     0.8778 H       
  93 H93           -3.7808     0.9437     1.0440 H       
  94 H94           -2.3460     8.8472     4.1828 H       
  95 H95           -4.1388     9.7384     6.3655 H       
  96 H96           -2.2624    11.6152     4.8763 H       
  97 H97           -3.2361    11.9615     6.3254 H       
  98 H98           -1.1662    11.5683     7.3112 H       
  99 H99           -1.8368     9.9197     7.3282 H       
 100 H100           1.0968    11.2681     6.8701 H       
 101 H101           2.9101    10.1080     5.7751 H       
 102 H102           1.6931     9.1732     4.8676 H       
 103 H103           1.1328    11.4764     3.7395 H       
 104 H104           2.7353    11.9686     4.3380 H       
 105 H105           3.3343     9.5281     3.2557 H       
 106 H106           2.0118    10.0439     2.1819 H       
 107 H107           3.4352    12.3666     2.3364 H       
 108 H108           4.2093    10.3444     0.3036 H       
 109 H109           4.9054    12.2077     4.3392 H       
 110 H110           6.4316    11.5313     4.1502 H       
 111 H111           2.6749    10.5268    -1.7131 H       
 112 H112           1.4891    13.2403    -2.1395 H       
 113 H113           4.0008    13.2487    -2.1096 H       
 114 H114           4.8833    11.7388    -1.7786 H       
 115 H115          -0.7403    12.1907    -3.9037 H       
 116 H116          -1.8802    10.2229    -2.6313 H       
 117 H117          -0.1998    14.1086    -2.4536 H       
 118 H118          -1.9612    13.8547    -2.4900 H       
 119 H119          -4.9586    10.9651    -2.3783 H       
 120 H120           4.5734    10.1095    -6.2555 H       
 121 H121           5.1226    10.0218    -3.7698 H       
 122 H122           2.2740    14.2591    -3.8367 H       
 123 H123           1.3295    15.0641    -5.9421 H       
 124 H124           1.7362    13.8443    -8.0376 H       
 125 H125           3.0973    11.8026    -8.0485 H       
 126 H126          -5.4172    12.1644    -0.2980 H       
 127 H127          -3.2682     9.1160    -2.3046 H       
 128 H128          -3.0629     9.4065    -0.5606 H       
 129 H129          -5.9341     9.0787    -2.9505 H       
 130 H130          -6.1723     6.5222     1.2593 H       
 131 H131          -4.2162     7.9378     0.7825 H       
 132 H132          -3.0314    10.9725     3.0714 H       
 133 H133          -5.9022    10.7009     2.3310 H       
 134 H134          -4.2181    13.2265     2.0135 H       
 135 H135          -5.8231    12.9829     1.2836 H       
 136 H136          -6.7979    12.6478     3.5388 H       
 137 H137          -5.1929    12.8913     4.2687 H       
 138 H138          -6.4876    14.9193     4.2687 H       
 139 H139          -5.1850    15.0980     3.2502 H       
 140 H140          -1.7549    12.5241    -0.3615 H       
 141 H141          -0.0295    12.9579    -0.3060 H       
 142 H142          -0.6351    15.3622    -0.2704 H       
 143 H143          -2.3605    14.9284    -0.3258 H       
 144 H144          -1.1774    13.5945     1.8645 H       
 145 H145          -1.4808    14.5234     4.0361 H       
 146 H146          -1.8935    16.1430     4.2069 H       
 147 H147          -2.1601    17.4464     2.3065 H       
 148 H148          -9.1553     4.9178     1.0024 H       
 149 H149          -7.3778     4.8360     0.9566 H       
 150 H150          -8.1854     6.2117     1.7462 H       
 151 H151          -8.8441     8.2587    -4.4992 H       
 152 H152          -7.8825     9.4670    -3.6140 H       
 153 H153          -7.0745     8.0917    -4.4040 H       
@<TRIPOS>BOND
   1    1    2 1
   2    1    3 am
   3    1    4 2
   4    2   79 1
   5    2   80 1
   6    2   81 1
   7    3    5 1
   8    3   82 1
   9    5    6 1
  10    5    7 1
  11    5   83 1
  12    6    8 1
  13    6   84 1
  14    6   85 1
  15    7   14 2
  16    7   15 am
  17    8    9 1
  18    8   86 1
  19    8   87 1
  20    9   10 1
  21    9   88 1
  22    9   89 1
  23   10   11 1
  24   10   90 1
  25   11   12 1
  26   11   13 2
  27   12   91 1
  28   12   92 1
  29   13   93 1
  30   15   16 1
  31   15   94 1
  32   16   17 1
  33   16   60 1
  34   16   95 1
  35   17   18 1
  36   17   96 1
  37   17   97 1
  38   18   19 1
  39   18   98 1
  40   18   99 1
  41   19   20 2
  42   19   21 am
  43   21   22 1
  44   21  100 1
  45   22   23 1
  46   22  101 1
  47   22  102 1
  48   23   24 1
  49   23  103 1
  50   23  104 1
  51   24   25 1
  52   24  105 1
  53   24  106 1
  54   25   26 1
  55   25   27 1
  56   25  107 1
  57   26   30 am
  58   26  108 1
  59   27   28 am
  60   27   29 2
  61   28  109 1
  62   28  110 1
  63   30   31 2
  64   30   32 1
  65   32   33 1
  66   32   34 1
  67   32  111 1
  68   33   35 am
  69   33  112 1
  70   34   43 1
  71   34  113 1
  72   34  114 1
  73   35   36 2
  74   35   37 1
  75   37   38 1
  76   37   39 1
  77   37  115 1
  78   38   40 am
  79   38  116 1
  80   39   69 1
  81   39  117 1
  82   39  118 1
  83   40   41 2
  84   40   42 1
  85   42   52 1
  86   42   53 1
  87   42  119 1
  88   43   44 1
  89   43   47 2
  90   44   45 ar
  91   44   48 ar
  92   45   46 1
  93   45   51 ar
  94   46   47 1
  95   46  120 1
  96   47  121 1
  97   48   49 ar
  98   48  122 1
  99   49   50 ar
 100   49  123 1
 101   50   51 ar
 102   50  124 1
 103   51  125 1
 104   52   65 am
 105   52  126 1
 106   53   54 1
 107   53  127 1
 108   53  128 1
 109   54   55 ar
 110   54   59 ar
 111   55   56 ar
 112   55  129 1
 113   56   57 ar
 114   56   77 1
 115   57   58 ar
 116   57   75 1
 117   58   59 ar
 118   58  130 1
 119   59  131 1
 120   60   61 am
 121   60   62 2
 122   61   63 1
 123   61  132 1
 124   63   64 1
 125   63   65 1
 126   63  133 1
 127   64   66 1
 128   64  134 1
 129   64  135 1
 130   65   68 2
 131   66   67 1
 132   66  136 1
 133   66  137 1
 134   67  138 1
 135   67  139 1
 136   69   70 1
 137   69  140 1
 138   69  141 1
 139   70   71 1
 140   70  142 1
 141   70  143 1
 142   71   72 1
 143   71  144 1
 144   72   73 1
 145   72   74 2
 146   73  145 1
 147   73  146 1
 148   74  147 1
 149   75   76 1
 150   76  148 1
 151   76  149 1
 152   76  150 1
 153   77   78 1
 154   78  151 1
 155   78  152 1
 156   78  153 1

#	End of record

