#	Name: ASD01230326
#	Creating user name:	WinNT
#	Creation time:	15. 06. 2019 19:14

#	Modifying user name:	WinNT
#	Modification time:	15. 06. 2019 19:14

#	Program:	/corina/corina34_cracker 3.40 0067  02.08.2006

@<TRIPOS>MOLECULE
ASD01230326
  44   47    0    0    0
SMALL
NO_CHARGES


@<TRIPOS>ATOM
   1 S1            -0.0203     1.6432     0.0111 S.o2    
   2 N2             0.0021    -0.0041     0.0020 N.am    
   3 C3             1.0582    -0.7115     0.0766 C.2     
   4 N4             2.3239    -0.2014     0.2156 N.pl3   
   5 C5             2.5547     1.1284     0.7685 C.3     
   6 C6             1.7187     2.1517    -0.0028 C.3     
   7 C7             0.9691    -2.2282     0.0263 C.3     
   8 C8             2.0432    -2.7791     0.9676 C.3     
   9 C9             3.4382    -2.3754     0.5096 C.3     
  10 C10            3.4443    -1.0396    -0.2239 C.3     
  11 C11           -1.1863    -3.3895    -0.3623 C.ar    
  12 C12           -0.3942    -2.6772     0.4854 C.ar    
  13 C13           -0.8249    -2.3574     1.7713 C.ar    
  14 C14           -2.0505    -2.7477     2.2171 C.ar    
  15 C15           -2.8963    -3.4842     1.3703 C.ar    
  16 C16           -4.1676    -3.9034     1.7958 C.ar    
  17 C17           -4.9628    -4.6172     0.9453 C.ar    
  18 C18           -4.5281    -4.9368    -0.3450 C.ar    
  19 C19           -3.3029    -4.5461    -0.7868 C.ar    
  20 C20           -2.4580    -3.8094     0.0619 C.ar    
  21 O21           -6.1922    -5.0226     1.3583 O.3     
  22 C22           -6.9780    -5.7657     0.4243 C.3     
  23 O23           -0.6472     1.9881    -1.2166 O.2     
  24 O24           -0.6237     1.9749     1.2541 O.2     
  25 H25            2.2653     1.1405     1.8193 H       
  26 H26            3.6113     1.3809     0.6793 H       
  27 H27            2.0726     2.2083    -1.0322 H       
  28 H28            1.8152     3.1296     0.4690 H       
  29 H29            1.1525    -2.5769    -0.9900 H       
  30 H30            1.8709    -2.3915     1.9717 H       
  31 H31            1.9753    -3.8668     0.9892 H       
  32 H32            4.0887    -2.3026     1.3812 H       
  33 H33            3.8279    -3.1455    -0.1561 H       
  34 H34            3.3602    -1.2183    -1.2958 H       
  35 H35            4.3816    -0.5221    -0.0194 H       
  36 H36           -0.8405    -3.6265    -1.3577 H       
  37 H37           -0.1766    -1.7918     2.4242 H       
  38 H38           -2.3709    -2.4929     3.2165 H       
  39 H39           -4.5142    -3.6630     2.7901 H       
  40 H40           -5.1746    -5.5023    -0.9997 H       
  41 H41           -2.9803    -4.8001    -1.7857 H       
  42 H42           -7.9334    -6.0265     0.8796 H       
  43 H43           -7.1526    -5.1612    -0.4657 H       
  44 H44           -6.4473    -6.6764     0.1466 H       
@<TRIPOS>BOND
   1    1    2 am
   2    1    6 1
   3    1   23 2
   4    1   24 2
   5    2    3 2
   6    3    4 1
   7    3    7 1
   8    4    5 1
   9    4   10 1
  10    5    6 1
  11    5   25 1
  12    5   26 1
  13    6   27 1
  14    6   28 1
  15    7    8 1
  16    7   12 1
  17    7   29 1
  18    8    9 1
  19    8   30 1
  20    8   31 1
  21    9   10 1
  22    9   32 1
  23    9   33 1
  24   10   34 1
  25   10   35 1
  26   11   12 ar
  27   11   20 ar
  28   11   36 1
  29   12   13 ar
  30   13   14 ar
  31   13   37 1
  32   14   15 ar
  33   14   38 1
  34   15   16 ar
  35   15   20 ar
  36   16   17 ar
  37   16   39 1
  38   17   18 ar
  39   17   21 1
  40   18   19 ar
  41   18   40 1
  42   19   20 ar
  43   19   41 1
  44   21   22 1
  45   22   42 1
  46   22   43 1
  47   22   44 1

#	End of record

