#	Name: ASD03731584
#	Creating user name:	WinNT
#	Creation time:	15. 06. 2019 20:46

#	Modifying user name:	WinNT
#	Modification time:	15. 06. 2019 20:46

#	Program:	/corina/corina34_cracker 3.40 0067  02.08.2006

@<TRIPOS>MOLECULE
ASD03731584
  36   37    0    0    0
SMALL
NO_CHARGES


@<TRIPOS>ATOM
   1 C1            -0.0179     1.4718     0.0101 C.2     
   2 C2             0.0021    -0.0041     0.0020 C.ar    
   3 C3             1.2206    -0.6877    -0.0133 C.ar    
   4 C4             1.2358    -2.0668    -0.0209 C.ar    
   5 C5             0.0397    -2.7773    -0.0133 C.ar    
   6 C6            -1.1753    -2.0997     0.0019 C.ar    
   7 C7            -1.1974    -0.7206     0.0154 C.ar    
   8 O8             1.0266     2.0940     0.0035 O.2     
   9 N9            -1.1942     2.1297     0.0193 N.am    
  10 S10           -1.2166     3.7856     0.0284 S.o2    
  11 O11           -2.5980     4.1171     0.0625 O.2     
  12 O12           -0.3511     4.1419     1.0976 O.2     
  13 C13           -0.4880     4.2569    -1.5646 C.3     
  14 F14           -2.3346    -2.7932     0.0092 F       
  15 F15            2.4136    -2.7286    -0.0361 F       
  16 O16            0.0581    -4.1350    -0.0213 O.3     
  17 C17            0.0784    -4.7799     1.1748 C.ar    
  18 C18            0.0977    -6.1668     1.2162 C.ar    
  19 C19            0.1183    -6.8202     2.4328 C.ar    
  20 C20            0.1192    -6.0927     3.6101 C.ar    
  21 C21            0.1000    -4.7099     3.5710 C.ar    
  22 C22            0.0856    -4.0524     2.3561 C.ar    
  23 C23            0.1392    -8.3264     2.4783 C.3     
  24 F24            0.1336    -8.8325     1.1741 F       
  25 F25            1.2939    -8.7569     3.1406 F       
  26 F26           -0.9903    -8.7880     3.1626 F       
  27 Cl27           0.1440    -6.9165     5.1380 Cl      
  28 H28            2.1495    -0.1368    -0.0195 H       
  29 H29           -2.1408    -0.1952     0.0321 H       
  30 H30           -2.0275     1.6334     0.0205 H       
  31 H31           -1.0900     3.8462    -2.3752 H       
  32 H32           -0.4628     5.3436    -1.6453 H       
  33 H33            0.5266     3.8641    -1.6305 H       
  34 H34            0.0963    -6.7349     0.2977 H       
  35 H35            0.1008    -4.1440     4.4909 H       
  36 H36            0.0755    -2.9728     2.3259 H       
@<TRIPOS>BOND
   1    1    2 1
   2    1    8 2
   3    1    9 am
   4    2    3 ar
   5    2    7 ar
   6    3    4 ar
   7    3   28 1
   8    4    5 ar
   9    4   15 1
  10    5    6 ar
  11    5   16 1
  12    6    7 ar
  13    6   14 1
  14    7   29 1
  15    9   10 am
  16    9   30 1
  17   10   11 2
  18   10   12 2
  19   10   13 1
  20   13   31 1
  21   13   32 1
  22   13   33 1
  23   16   17 1
  24   17   18 ar
  25   17   22 ar
  26   18   19 ar
  27   18   34 1
  28   19   20 ar
  29   19   23 1
  30   20   21 ar
  31   20   27 1
  32   21   22 ar
  33   21   35 1
  34   22   36 1
  35   23   24 1
  36   23   25 1
  37   23   26 1

#	End of record

