#	Name: ASD01811666
#	Creating user name:	WinNT
#	Creation time:	15. 06. 2019 19:27

#	Modifying user name:	WinNT
#	Modification time:	15. 06. 2019 19:27

#	Program:	/corina/corina34_cracker 3.40 0067  02.08.2006

@<TRIPOS>MOLECULE
ASD01811666
  33   35    0    0    0
SMALL
NO_CHARGES


@<TRIPOS>ATOM
   1 C1             0.3018     1.7813     0.5683 C.ar    
   2 C2             0.1646     0.4033     0.5810 C.ar    
   3 C3             1.2637    -0.4002     0.3825 C.ar    
   4 C4             2.5297     0.1645     0.1666 C.ar    
   5 C5             2.6654     1.5518     0.1556 C.ar    
   6 C6             1.5383     2.3511     0.3577 C.ar    
   7 C7             3.6599    -0.7541    -0.0415 C.2     
   8 N8             4.6023    -0.5784    -0.8987 N.2     
   9 C9             4.6430     0.5940    -1.7717 C.3     
  10 C10            4.8025     1.8269    -0.9245 C.2     
  11 N11            3.8747     2.1965    -0.0453 N.am    
  12 S12            6.1219     2.7160    -1.0841 S.2     
  13 C13            3.7168    -1.9722     0.7998 C.ar    
  14 C14            3.0645    -2.0032     2.0321 C.ar    
  15 C15            3.1212    -3.1406     2.8112 C.ar    
  16 C16            3.8237    -4.2487     2.3723 C.ar    
  17 C17            4.4728    -4.2241     1.1508 C.ar    
  18 C18            4.4182    -3.0946     0.3600 C.ar    
  19 C19           -1.1893    -0.2165     0.8128 C.3     
  20 F20           -2.1410     0.7939     0.9876 F       
  21 F21           -1.5388    -1.0001    -0.2922 F       
  22 F22           -1.1451    -1.0187     1.9581 F       
  23 H23           -0.5629     2.4105     0.7194 H       
  24 H24            1.1510    -1.4742     0.3934 H       
  25 H25            1.6369     3.4265     0.3487 H       
  26 H26            5.4868     0.5101    -2.4566 H       
  27 H27            3.7149     0.6588    -2.3395 H       
  28 H28            4.0596     2.9791     0.4973 H       
  29 H29            2.5163    -1.1385     2.3761 H       
  30 H30            2.6164    -3.1658     3.7656 H       
  31 H31            3.8658    -5.1365     2.9859 H       
  32 H32            5.0196    -5.0922     0.8135 H       
  33 H33            4.9254    -3.0766    -0.5933 H       
@<TRIPOS>BOND
   1    1    2 ar
   2    1    6 ar
   3    1   23 1
   4    2    3 ar
   5    2   19 1
   6    3    4 ar
   7    3   24 1
   8    4    5 ar
   9    4    7 1
  10    5    6 ar
  11    5   11 1
  12    6   25 1
  13    7    8 2
  14    7   13 1
  15    8    9 1
  16    9   10 1
  17    9   26 1
  18    9   27 1
  19   10   11 am
  20   10   12 2
  21   11   28 1
  22   13   14 ar
  23   13   18 ar
  24   14   15 ar
  25   14   29 1
  26   15   16 ar
  27   15   30 1
  28   16   17 ar
  29   16   31 1
  30   17   18 ar
  31   17   32 1
  32   18   33 1
  33   19   20 1
  34   19   21 1
  35   19   22 1

#	End of record

