#	Name: ASD01810858
#	Creating user name:	WinNT
#	Creation time:	15. 06. 2019 19:25

#	Modifying user name:	WinNT
#	Modification time:	15. 06. 2019 19:25

#	Program:	/corina/corina34_cracker 3.40 0067  02.08.2006

@<TRIPOS>MOLECULE
ASD01810858
  70   74    0    0    0
SMALL
NO_CHARGES


@<TRIPOS>ATOM
   1 C1            -7.3058     2.0690    -3.8471 C.1     
   2 C2            -6.3320     2.8735    -3.1725 C.ar    
   3 C3            -5.1746     2.2875    -2.6559 C.ar    
   4 C4            -4.2406     3.0684    -2.0071 C.ar    
   5 C5            -4.4489     4.4291    -1.8672 C.ar    
   6 C6            -5.5938     5.0161    -2.3762 C.ar    
   7 C7            -6.5328     4.2482    -3.0332 C.ar    
   8 N8            -8.0784     1.4309    -4.3823 N.1     
   9 N9            -2.4032     7.7144    -0.1519 N.am    
  10 C10           -1.8322     7.1851    -1.3979 C.3     
  11 C11           -2.8982     6.3487    -2.1126 C.3     
  12 C12           -3.4244     5.2756    -1.1568 C.3     
  13 C13           -4.0701     5.9448     0.0586 C.3     
  14 C14           -3.0174     6.7766     0.7979 C.3     
  15 C15           -2.3594     9.0343     0.1173 C.2     
  16 C16           -3.0123     9.5627     1.3342 C.ar    
  17 C17           -3.9673    10.5770     1.2319 C.ar    
  18 C18           -4.5778    11.0715     2.3671 C.ar    
  19 C19           -4.2495    10.5680     3.6104 C.ar    
  20 C20           -3.2961     9.5542     3.7270 C.ar    
  21 C21           -2.6805     9.0462     2.5847 C.ar    
  22 O22           -1.7832     9.7902    -0.6403 O.2     
  23 C23           -4.3317    11.1330    -0.1205 C.3     
  24 N24           -2.9948     8.6851     7.2599 N.pl3   
  25 N25           -3.5371     9.3549     6.1567 N.2     
  26 C26           -2.9454     9.0165     5.0590 C.2     
  27 N27           -1.9364     8.0818     5.2847 N.pl3   
  28 C28           -1.9229     7.8226     6.7343 C.3     
  29 C29           -3.4072     8.8200     8.6592 C.3     
  30 C30           -0.5730     8.2167     7.3372 C.3     
  31 C31            0.5215     7.3069     6.7756 C.3     
  32 C32           -4.9211    11.1140     4.8440 C.3     
  33 C33           -4.7767    12.6369     5.0011 C.3     
  34 C34           -6.2384    12.6471     5.4790 C.3     
  35 C35           -6.4299    11.3542     4.6688 C.3     
  36 H36           -5.0111     1.2255    -2.7638 H       
  37 H37           -3.3450     2.6165    -1.6071 H       
  38 H38           -5.7503     6.0787    -2.2633 H       
  39 H39           -7.4237     4.7085    -3.4343 H       
  40 H40           -1.5255     8.0114    -2.0392 H       
  41 H41           -0.9701     6.5590    -1.1678 H       
  42 H42           -3.7199     6.9944    -2.4224 H       
  43 H43           -2.4593     5.8718    -2.9890 H       
  44 H44           -2.5979     4.6456    -0.8277 H       
  45 H45           -4.8808     6.5943    -0.2716 H       
  46 H46           -4.4653     5.1804     0.7277 H       
  47 H47           -2.2520     6.1172     1.2071 H       
  48 H48           -3.4927     7.3334     1.6055 H       
  49 H49           -5.3153    11.8560     2.2825 H       
  50 H50           -1.9461     8.2589     2.6689 H       
  51 H51           -5.0966    10.5051    -0.5774 H       
  52 H52           -4.7150    12.1468    -0.0053 H       
  53 H53           -3.4470    11.1491    -0.7571 H       
  54 H54           -1.3570     7.6809     4.6180 H       
  55 H55           -2.1418     6.7742     6.9371 H       
  56 H56           -4.2239     9.5384     8.7297 H       
  57 H57           -3.7409     7.8526     9.0345 H       
  58 H58           -2.5636     9.1693     9.2545 H       
  59 H59           -0.3501     9.2529     7.0829 H       
  60 H60           -0.6140     8.1093     8.4211 H       
  61 H61            0.5624     7.4143     5.6917 H       
  62 H62            1.4831     7.5876     7.2052 H       
  63 H63            0.2985     6.2707     7.0299 H       
  64 H64           -4.6683    10.5561     5.7457 H       
  65 H65           -4.0635    12.9308     5.7712 H       
  66 H66           -4.6221    13.1605     4.0577 H       
  67 H67           -6.3470    12.5085     6.5547 H       
  68 H68           -6.8160    13.4899     5.0993 H       
  69 H69           -6.7273    11.5270     3.6345 H       
  70 H70           -7.0513    10.6125     5.1706 H       
@<TRIPOS>BOND
   1    1    2 1
   2    1    8 3
   3    2    3 ar
   4    2    7 ar
   5    3    4 ar
   6    3   36 1
   7    4    5 ar
   8    4   37 1
   9    5    6 ar
  10    5   12 1
  11    6    7 ar
  12    6   38 1
  13    7   39 1
  14    9   10 1
  15    9   14 1
  16    9   15 am
  17   10   11 1
  18   10   40 1
  19   10   41 1
  20   11   12 1
  21   11   42 1
  22   11   43 1
  23   12   13 1
  24   12   44 1
  25   13   14 1
  26   13   45 1
  27   13   46 1
  28   14   47 1
  29   14   48 1
  30   15   16 1
  31   15   22 2
  32   16   17 ar
  33   16   21 ar
  34   17   18 ar
  35   17   23 1
  36   18   19 ar
  37   18   49 1
  38   19   20 ar
  39   19   32 1
  40   20   21 ar
  41   20   26 1
  42   21   50 1
  43   23   51 1
  44   23   52 1
  45   23   53 1
  46   24   25 1
  47   24   28 1
  48   24   29 1
  49   25   26 2
  50   26   27 1
  51   27   28 1
  52   27   54 1
  53   28   30 1
  54   28   55 1
  55   29   56 1
  56   29   57 1
  57   29   58 1
  58   30   31 1
  59   30   59 1
  60   30   60 1
  61   31   61 1
  62   31   62 1
  63   31   63 1
  64   32   33 1
  65   32   35 1
  66   32   64 1
  67   33   34 1
  68   33   65 1
  69   33   66 1
  70   34   35 1
  71   34   67 1
  72   34   68 1
  73   35   69 1
  74   35   70 1

#	End of record

