#	Name: ASD00843606
#	Creating user name:	WinNT
#	Creation time:	15. 06. 2019 18:47

#	Modifying user name:	WinNT
#	Modification time:	15. 06. 2019 18:47

#	Program:	/corina/corina34_cracker 3.40 0067  02.08.2006

@<TRIPOS>MOLECULE
ASD00843606
  87   92    0    0    0
SMALL
NO_CHARGES


@<TRIPOS>ATOM
   1 F1             5.5857    -2.7324    -1.8839 F       
   2 N2             0.8154     0.9606    -0.4836 N.ar    
   3 C3             0.9788    -0.3362    -0.6846 C.ar    
   4 C4             0.8053    -1.2410     0.3552 C.ar    
   5 C5             0.4582    -0.7679     1.6084 C.ar    
   6 C6             0.2962     0.6004     1.7781 C.ar    
   7 C7             0.4847     1.4417     0.6999 C.ar    
   8 C8             0.9920    -2.7180     0.1214 C.3     
   9 C9             0.6108    -3.5031     1.3583 C.2     
  10 C10            0.1653    -3.1776    -1.0811 C.3     
  11 C11           -1.2751    -2.7820    -0.8813 C.2     
  12 N12           -2.2116    -3.1776    -1.7660 N.am    
  13 O13           -1.5914    -2.1075     0.0758 O.2     
  14 C14           -3.6025    -2.7135    -1.6512 C.3     
  15 C15           -4.0422    -2.1529    -3.0079 C.3     
  16 N16           -3.8079    -3.1613    -4.0500 N.3     
  17 C17           -2.3777    -3.4705    -4.1805 C.3     
  18 C18           -1.8686    -4.0802    -2.8755 C.3     
  19 C19           -4.3729    -2.7307    -5.3358 C.3     
  20 C20           -4.0029    -3.7441    -6.4224 C.3     
  21 C21           -4.6448    -3.3226    -7.7462 C.3     
  22 N22           -6.1032    -3.2599    -7.5863 N.3     
  23 C23           -6.4847    -2.2593    -6.5816 C.3     
  24 C24           -5.8977    -2.6491    -5.2230 C.3     
  25 H25           -6.5562    -3.0768    -8.4692 H       
  26 O26           -0.4824    -3.5350     1.8828 O.2     
  27 N27            1.7108    -4.1584     1.7658 N.am    
  28 C28            2.4543    -3.0410    -0.0832 C.ar    
  29 C29            2.8101    -3.9088     0.9416 C.ar    
  30 C30            3.3763    -2.6464    -1.0266 C.ar    
  31 C31            4.6779    -3.1166    -0.9600 C.ar    
  32 C32            5.0453    -3.9833     0.0582 C.ar    
  33 C33            4.1198    -4.3790     1.0047 C.ar    
  34 F34            6.3140    -4.4430     0.1250 F       
  35 C35            1.3479    -6.7722     2.5473 C.ar    
  36 C36            0.0821    -7.0374     2.0457 C.ar    
  37 C37            2.2890    -7.7816     2.6134 C.ar    
  38 C38            1.9701    -9.0550     2.1797 C.ar    
  39 C39            0.7089    -9.3219     1.6792 C.ar    
  40 C40           -0.2356    -8.3164     1.6115 C.ar    
  41 H41            0.4623   -10.3175     1.3410 H       
  42 O42           -0.8454    -6.0463     1.9802 O.3     
  43 C43           -2.1277    -6.3918     1.4525 C.3     
  44 C44           -3.0308    -5.1567     1.4574 C.3     
  45 S45            1.7575    -5.1477     3.0930 S.o2    
  46 O46            3.1150    -5.1950     3.5105 O.2     
  47 O47            0.6973    -4.7303     3.9421 O.2     
  48 O48            1.3186    -0.7874    -1.9182 O.3     
  49 C49            1.4198     0.1857    -2.9597 C.3     
  50 C50            1.9132    -0.4886    -4.2414 C.3     
  51 F51            3.1272    -1.1368    -3.9898 F       
  52 F52            0.9655    -1.4238    -4.6709 F       
  53 H53            0.3163    -1.4476     2.4356 H       
  54 H54            0.0253     1.0025     2.7432 H       
  55 H55            0.3602     2.5069     0.8266 H       
  56 H56            0.5488    -2.7077    -1.9867 H       
  57 H57            0.2345    -4.2612    -1.1768 H       
  58 H58           -4.2457    -3.5489    -1.3744 H       
  59 H59           -3.6664    -1.9320    -0.8940 H       
  60 H60           -5.1032    -1.9058    -2.9728 H       
  61 H61           -3.4666    -1.2553    -3.2344 H       
  62 H62           -2.2317    -4.1790    -4.9959 H       
  63 H63           -1.8253    -2.5546    -4.3907 H       
  64 H64           -0.7870    -4.2049    -2.9270 H       
  65 H65           -2.3442    -5.0475    -2.7132 H       
  66 H66           -3.9733    -1.7516    -5.5997 H       
  67 H67           -2.9194    -3.7755    -6.5371 H       
  68 H68           -4.3681    -4.7313    -6.1389 H       
  69 H69           -4.2687    -2.3415    -8.0360 H       
  70 H70           -4.3950    -4.0499    -8.5187 H       
  71 H71           -6.1000    -1.2831    -6.8768 H       
  72 H72           -7.5713    -2.2142    -6.5083 H       
  73 H73           -6.2927    -3.6189    -4.9207 H       
  74 H74           -6.1680    -1.8980    -4.4808 H       
  75 H75            3.0852    -1.9715    -1.8179 H       
  76 H76            4.4125    -5.0540     1.7953 H       
  77 H77            3.2746    -7.5756     3.0038 H       
  78 H78            2.7074    -9.8425     2.2314 H       
  79 H79           -1.2206    -8.5255     1.2212 H       
  80 H80           -2.0145    -6.7549     0.4310 H       
  81 H81           -2.5757    -7.1719     2.0679 H       
  82 H82           -4.0089    -5.4202     1.0549 H       
  83 H83           -3.1441    -4.7935     2.4789 H       
  84 H84           -2.5828    -4.3766     0.8420 H       
  85 H85            0.4410     0.6311    -3.1372 H       
  86 H86            2.1244     0.9628    -2.6637 H       
  87 H87            2.0573     0.2646    -5.0160 H       
@<TRIPOS>BOND
   1    1   31 1
   2    2    3 ar
   3    2    7 ar
   4    3    4 ar
   5    3   48 1
   6    4    5 ar
   7    4    8 1
   8    5    6 ar
   9    5   53 1
  10    6    7 ar
  11    6   54 1
  12    7   55 1
  13    8    9 1
  14    8   10 1
  15    8   28 1
  16    9   26 2
  17    9   27 am
  18   10   11 1
  19   10   56 1
  20   10   57 1
  21   11   12 am
  22   11   13 2
  23   12   14 1
  24   12   18 1
  25   14   15 1
  26   14   58 1
  27   14   59 1
  28   15   16 1
  29   15   60 1
  30   15   61 1
  31   16   17 1
  32   16   19 1
  33   17   18 1
  34   17   62 1
  35   17   63 1
  36   18   64 1
  37   18   65 1
  38   19   20 1
  39   19   24 1
  40   19   66 1
  41   20   21 1
  42   20   67 1
  43   20   68 1
  44   21   22 1
  45   21   69 1
  46   21   70 1
  47   22   23 1
  48   22   25 1
  49   23   24 1
  50   23   71 1
  51   23   72 1
  52   24   73 1
  53   24   74 1
  54   27   45 am
  55   27   29 1
  56   28   29 ar
  57   28   30 ar
  58   29   33 ar
  59   30   31 ar
  60   30   75 1
  61   31   32 ar
  62   32   33 ar
  63   32   34 1
  64   33   76 1
  65   35   36 ar
  66   35   37 ar
  67   35   45 1
  68   36   42 1
  69   36   40 ar
  70   37   38 ar
  71   37   77 1
  72   38   39 ar
  73   38   78 1
  74   39   40 ar
  75   39   41 1
  76   40   79 1
  77   42   43 1
  78   43   44 1
  79   43   80 1
  80   43   81 1
  81   44   82 1
  82   44   83 1
  83   44   84 1
  84   45   46 2
  85   45   47 2
  86   48   49 1
  87   49   50 1
  88   49   85 1
  89   49   86 1
  90   50   51 1
  91   50   52 1
  92   50   87 1

#	End of record

