#	Name: ASD05130018
#	Creating user name:	WinNT
#	Creation time:	15. 06. 2019 20:56

#	Modifying user name:	WinNT
#	Modification time:	15. 06. 2019 20:56

#	Program:	/corina/corina34_cracker 3.40 0067  02.08.2006

@<TRIPOS>MOLECULE
ASD05130018
  68   72    0    0    0
SMALL
NO_CHARGES


@<TRIPOS>ATOM
   1 N1             1.0794     2.4024     1.0371 N.am    
   2 C2             2.5393     2.2468     0.9518 C.3     
   3 C3             2.3068     0.7727     0.5925 C.3     
   4 C4             1.0014     0.9731     1.3747 C.3     
   5 C5             0.2003     3.4119     0.8807 C.2     
   6 O6             0.5974     4.5250     0.5953 O.2     
   7 N7            -1.1190     3.1875     1.0406 N.am    
   8 N8            -5.6264     4.8557     1.0433 N.am    
   9 C9            -6.4778     5.8987     0.9894 C.2     
  10 C10           -5.9640     7.2654     0.8703 C.2     
  11 C11           -4.6135     7.4762     0.8144 C.2     
  12 C12           -3.7400     6.3641     0.8733 C.ar    
  13 C13           -2.3509     6.5332     0.8205 C.ar    
  14 N14           -1.5534     5.4890     0.8772 N.ar    
  15 C15           -2.0171     4.2491     0.9853 C.ar    
  16 C16           -3.3783     3.9914     1.0437 C.ar    
  17 C17           -4.2671     5.0595     0.9877 C.ar    
  18 O18           -7.6793     5.7044     1.0396 O.2     
  19 C19           -6.1525     3.4941     1.1680 C.3     
  20 C20           -6.8746     3.3473     2.5089 C.3     
  21 C21           -7.1345     3.2202     0.0272 C.3     
  22 C22           -6.9009     8.4118     0.8102 C.ar    
  23 C23           -7.0672     9.2377     1.9218 C.ar    
  24 C24           -7.9406    10.3049     1.8647 C.ar    
  25 C25           -8.6533    10.5595     0.7059 C.ar    
  26 C26           -8.4928     9.7407    -0.4076 C.ar    
  27 C27           -7.6138     8.6707    -0.3591 C.ar    
  28 N28           -9.2160    10.0009    -1.5787 N.am    
  29 C29           -8.7350     9.5976    -2.7714 C.2     
  30 O30           -7.7100     8.9456    -2.8245 O.2     
  31 N31           -9.3901     9.9170    -3.9051 N.am    
  32 C32           -8.8274     9.6090    -5.1487 C.ar    
  33 C33           -9.6456     9.4153    -6.2539 C.ar    
  34 C34           -9.0872     9.1114    -7.4800 C.ar    
  35 C35           -7.7148     9.0000    -7.6078 C.ar    
  36 C36           -6.8973     9.1919    -6.5091 C.ar    
  37 C37           -7.4492     9.5021    -5.2816 C.ar    
  38 C38           -6.2934     8.9644     3.1858 C.3     
  39 F39           -9.5072    11.6053     0.6559 F       
  40 H40            2.9910     2.8242     0.1452 H       
  41 H41            3.0472     2.3860     1.9062 H       
  42 H42            2.1659     0.5892    -0.4727 H       
  43 H43            3.0076     0.0823     1.0619 H       
  44 H44            1.0997     0.7731     2.4417 H       
  45 H45            0.1455     0.4676     0.9276 H       
  46 H46           -1.4425     2.2860     1.1942 H       
  47 H47           -4.2192     8.4778     0.7262 H       
  48 H48           -1.9328     7.5251     0.7326 H       
  49 H49           -3.7421     2.9783     1.1309 H       
  50 H50           -5.3298     2.7808     1.1184 H       
  51 H51           -7.6973     4.0606     2.5585 H       
  52 H52           -7.2660     2.3342     2.6017 H       
  53 H53           -6.1750     3.5424     3.3216 H       
  54 H54           -7.5259     2.2072     0.1201 H       
  55 H55           -7.9572     3.9335     0.0768 H       
  56 H56           -6.6200     3.3248    -0.9280 H       
  57 H57           -8.0685    10.9428     2.7268 H       
  58 H58           -7.4848     8.0364    -1.2237 H       
  59 H59          -10.0629    10.4714    -1.5313 H       
  60 H60          -10.2516    10.3603    -3.8589 H       
  61 H61          -10.7176     9.5018    -6.1547 H       
  62 H62           -9.7230     8.9603    -8.3398 H       
  63 H63           -7.2805     8.7623    -8.5676 H       
  64 H64           -5.8259     9.1035    -6.6120 H       
  65 H65           -6.8099     9.6568    -4.4250 H       
  66 H66           -5.3461     9.5027     3.1554 H       
  67 H67           -6.8735     9.2980     4.0462 H       
  68 H68           -6.1010     7.8948     3.2699 H       
@<TRIPOS>BOND
   1    1    2 1
   2    1    4 1
   3    1    5 am
   4    2    3 1
   5    2   40 1
   6    2   41 1
   7    3    4 1
   8    3   42 1
   9    3   43 1
  10    4   44 1
  11    4   45 1
  12    5    6 2
  13    5    7 am
  14    7   15 1
  15    7   46 1
  16    8    9 am
  17    8   17 1
  18    8   19 1
  19    9   10 1
  20    9   18 2
  21   10   11 2
  22   10   22 1
  23   11   12 1
  24   11   47 1
  25   12   13 ar
  26   12   17 ar
  27   13   14 ar
  28   13   48 1
  29   14   15 ar
  30   15   16 ar
  31   16   17 ar
  32   16   49 1
  33   19   20 1
  34   19   21 1
  35   19   50 1
  36   20   51 1
  37   20   52 1
  38   20   53 1
  39   21   54 1
  40   21   55 1
  41   21   56 1
  42   22   23 ar
  43   22   27 ar
  44   23   24 ar
  45   23   38 1
  46   24   25 ar
  47   24   57 1
  48   25   26 ar
  49   25   39 1
  50   26   27 ar
  51   26   28 1
  52   27   58 1
  53   28   29 am
  54   28   59 1
  55   29   30 2
  56   29   31 am
  57   31   32 1
  58   31   60 1
  59   32   33 ar
  60   32   37 ar
  61   33   34 ar
  62   33   61 1
  63   34   35 ar
  64   34   62 1
  65   35   36 ar
  66   35   63 1
  67   36   37 ar
  68   36   64 1
  69   37   65 1
  70   38   66 1
  71   38   67 1
  72   38   68 1

#	End of record

