#	Name: ASD03330053
#	Creating user name:	WinNT
#	Creation time:	15. 06. 2019 20:36

#	Modifying user name:	WinNT
#	Modification time:	15. 06. 2019 20:36

#	Program:	/corina/corina34_cracker 3.40 0067  02.08.2006

@<TRIPOS>MOLECULE
ASD03330053
  76   80    0    0    0
SMALL
NO_CHARGES


@<TRIPOS>ATOM
   1 C1            -2.0336     0.4058    -1.5505 C.2     
   2 C2            -1.7060    -0.6407    -0.7416 C.2     
   3 C3            -1.1022     1.4228    -1.5829 C.2     
   4 C4             0.0015     1.2053    -0.7903 C.2     
   5 S5            -0.1514    -0.3455     0.0235 S.3     
   6 C6             1.1403     2.1324    -0.6457 C.ar    
   7 C7             1.6017     2.4853     0.6257 C.ar    
   8 C8             1.7662     2.6574    -1.7789 C.ar    
   9 C9             2.8299     3.5234    -1.6365 C.ar    
  10 C10            3.2786     3.8729    -0.3746 C.ar    
  11 C11            2.6678     3.3535     0.7526 C.ar    
  12 C12           -1.2751     2.6459    -2.4028 C.ar    
  13 C13           -1.5331     2.5406    -3.7689 C.ar    
  14 C14           -1.1858     3.9039    -1.8082 C.ar    
  15 C15           -1.3471     5.0398    -2.5738 C.ar    
  16 C16           -1.5981     4.9315    -3.9347 C.ar    
  17 C17           -1.6934     3.6804    -4.5287 C.ar    
  18 Cl18           0.8361     1.8342     2.0412 Cl      
  19 C19           -2.5291    -1.8362    -0.5390 C.2     
  20 O20           -3.7367    -1.7321    -0.4281 O.2     
  21 N21           -1.9488    -3.0510    -0.4754 N.am    
  22 O22           -1.7566     6.0527    -4.6863 O.3     
  23 O23           -2.5736     8.3108    -8.8794 O.3     
  24 C24           -0.4859    -3.1843    -0.5056 C.3     
  25 C25           -2.7669    -4.2667    -0.3683 C.3     
  26 C26           -2.3629    -5.2330    -1.4863 C.3     
  27 C27           -0.8545    -5.4825    -1.4191 C.3     
  28 C28           -0.1028    -4.1605    -1.6224 C.3     
  29 C29            1.3429    -7.6251    -3.5673 C.ar    
  30 C30            1.6756    -7.1278    -4.8135 C.ar    
  31 C31            2.0143    -7.9939    -5.8358 C.ar    
  32 C32            2.0205    -9.3602    -5.6114 C.ar    
  33 C33            1.6871    -9.8571    -4.3628 C.ar    
  34 C34            1.3487    -8.9890    -3.3420 C.ar    
  35 C35           -0.4995    -6.0525    -0.0700 C.2     
  36 N36           -0.6567    -7.3698     0.1676 N.am    
  37 O37           -0.0724    -5.3258     0.8020 O.2     
  38 N38           -0.4687    -6.4346    -2.4692 N.3     
  39 C39            0.9797    -6.6793    -2.4516 C.3     
  40 F40            2.3511   -10.2078    -6.6101 F       
  41 C41           -2.0125     5.8687    -6.0801 C.3     
  42 C42           -2.1609     7.2333    -6.7559 C.3     
  43 C43           -2.4349     7.0363    -8.2482 C.3     
  44 H44           -2.9481     0.4346    -2.1244 H       
  45 H45            1.4181     2.3854    -2.7644 H       
  46 H46            3.3145     3.9297    -2.5120 H       
  47 H47            4.1124     4.5513    -0.2696 H       
  48 H48            3.0230     3.6309     1.7341 H       
  49 H49           -1.6069     1.5676    -4.2317 H       
  50 H50           -0.9908     3.9888    -0.7494 H       
  51 H51           -1.2783     6.0145    -2.1138 H       
  52 H52           -1.8888     3.5997    -5.5878 H       
  53 H53           -2.7492     8.2624    -9.8291 H       
  54 H54           -0.0343    -2.2115    -0.6998 H       
  55 H55           -0.1341    -3.5683     0.4519 H       
  56 H56           -2.5973    -4.7372     0.6002 H       
  57 H57           -3.8207    -4.0083    -0.4718 H       
  58 H58           -2.8937    -6.1767    -1.3610 H       
  59 H59           -2.6170    -4.7977    -2.4528 H       
  60 H60           -0.3762    -3.7310    -2.5862 H       
  61 H61            0.9712    -4.3450    -1.5974 H       
  62 H62            1.6704    -6.0621    -4.9885 H       
  63 H63            2.2738    -7.6052    -6.8094 H       
  64 H64            1.6916   -10.9226    -4.1866 H       
  65 H65            1.0887    -9.3764    -2.3680 H       
  66 H66           -0.9337    -7.9621    -0.5489 H       
  67 H67           -0.4927    -7.7256     1.0549 H       
  68 H68           -0.9825    -7.2984    -2.3806 H       
  69 H69            1.2622    -7.1198    -1.4955 H       
  70 H70            1.5092    -5.7363    -2.5879 H       
  71 H71           -1.1823     5.3271    -6.5335 H       
  72 H72           -2.9320     5.2977    -6.2084 H       
  73 H73           -2.9911     7.7749    -6.3025 H       
  74 H74           -1.2413     7.8043    -6.6276 H       
  75 H75           -3.3545     6.4653    -8.3765 H       
  76 H76           -1.6047     6.4947    -8.7016 H       
@<TRIPOS>BOND
   1    1    2 2
   2    1    3 1
   3    1   44 1
   4    2   19 1
   5    2    5 1
   6    3    4 2
   7    3   12 1
   8    4    5 1
   9    4    6 1
  10    6    7 ar
  11    6    8 ar
  12    7   18 1
  13    7   11 ar
  14    8    9 ar
  15    8   45 1
  16    9   10 ar
  17    9   46 1
  18   10   11 ar
  19   10   47 1
  20   11   48 1
  21   12   13 ar
  22   12   14 ar
  23   13   17 ar
  24   13   49 1
  25   14   15 ar
  26   14   50 1
  27   15   16 ar
  28   15   51 1
  29   16   17 ar
  30   16   22 1
  31   17   52 1
  32   19   20 2
  33   19   21 am
  34   21   24 1
  35   21   25 1
  36   22   41 1
  37   23   43 1
  38   23   53 1
  39   24   28 1
  40   24   54 1
  41   24   55 1
  42   25   26 1
  43   25   56 1
  44   25   57 1
  45   26   27 1
  46   26   58 1
  47   26   59 1
  48   27   28 1
  49   27   35 1
  50   27   38 1
  51   28   60 1
  52   28   61 1
  53   29   30 ar
  54   29   34 ar
  55   29   39 1
  56   30   31 ar
  57   30   62 1
  58   31   32 ar
  59   31   63 1
  60   32   33 ar
  61   32   40 1
  62   33   34 ar
  63   33   64 1
  64   34   65 1
  65   35   36 am
  66   35   37 2
  67   36   66 1
  68   36   67 1
  69   38   39 1
  70   38   68 1
  71   39   69 1
  72   39   70 1
  73   41   42 1
  74   41   71 1
  75   41   72 1
  76   42   43 1
  77   42   73 1
  78   42   74 1
  79   43   75 1
  80   43   76 1

#	End of record

