#	Name: ASD01230297
#	Creating user name:	WinNT
#	Creation time:	15. 06. 2019 19:12

#	Modifying user name:	WinNT
#	Modification time:	15. 06. 2019 19:12

#	Program:	/corina/corina34_cracker 3.40 0067  02.08.2006

@<TRIPOS>MOLECULE
ASD01230297
  37   39    0    0    0
SMALL
NO_CHARGES


@<TRIPOS>ATOM
   1 C1            -0.2100     1.3424     1.5458 C.ar    
   2 C2            -0.1484     0.1190     0.8634 C.ar    
   3 C3             1.0864    -0.3289     0.3947 C.ar    
   4 C4             2.2040     0.4585     0.6250 C.ar    
   5 C5             2.0651     1.6526     1.3052 C.ar    
   6 N6             0.8861     2.0570     1.7400 N.ar    
   7 N7            -1.4300     1.8095     2.0157 N.pl3   
   8 C8            -1.3750    -0.6850     0.6443 C.ar    
   9 C9            -1.6791    -1.1621    -0.6299 C.ar    
  10 C10           -2.8203    -1.9099    -0.8304 C.ar    
  11 C11           -3.6661    -2.1878     0.2352 C.ar    
  12 C12           -3.3659    -1.7140     1.5054 C.ar    
  13 C13           -2.2234    -0.9701     1.7132 C.ar    
  14 O14           -4.7899    -2.9244     0.0345 O.3     
  15 C15           -5.9411    -2.2647    -0.2608 C.ar    
  16 C16           -5.9238    -0.8911    -0.4561 C.ar    
  17 C17           -7.0943    -0.2220    -0.7560 C.ar    
  18 C18           -8.2848    -0.9215    -0.8618 C.ar    
  19 C19           -8.3037    -2.2920    -0.6667 C.ar    
  20 C20           -7.1334    -2.9648    -0.3726 C.ar    
  21 C21           -7.0760     1.2699    -0.9677 C.3     
  22 F22           -9.4290    -0.2658    -1.1551 F       
  23 H23            1.1700    -1.2667    -0.1345 H       
  24 H24            3.1753     0.1408     0.2757 H       
  25 H25            2.9359     2.2656     1.4848 H       
  26 H26           -2.2364     1.2899     1.8715 H       
  27 H27           -1.4762     2.6554     2.4881 H       
  28 H28           -1.0218    -0.9460    -1.4591 H       
  29 H29           -3.0566    -2.2795    -1.8173 H       
  30 H30           -4.0257    -1.9317     2.3323 H       
  31 H31           -1.9882    -0.6056     2.7023 H       
  32 H32           -4.9955    -0.3452    -0.3734 H       
  33 H33           -9.2331    -2.8360    -0.7488 H       
  34 H34           -7.1476    -4.0346    -0.2252 H       
  35 H35           -6.8973     1.4852    -2.0212 H       
  36 H36           -8.0357     1.6911    -0.6685 H       
  37 H37           -6.2817     1.7125    -0.3666 H       
@<TRIPOS>BOND
   1    1    2 ar
   2    1    6 ar
   3    1    7 1
   4    2    3 ar
   5    2    8 1
   6    3    4 ar
   7    3   23 1
   8    4    5 ar
   9    4   24 1
  10    5    6 ar
  11    5   25 1
  12    7   26 1
  13    7   27 1
  14    8    9 ar
  15    8   13 ar
  16    9   10 ar
  17    9   28 1
  18   10   11 ar
  19   10   29 1
  20   11   12 ar
  21   11   14 1
  22   12   13 ar
  23   12   30 1
  24   13   31 1
  25   14   15 1
  26   15   16 ar
  27   15   20 ar
  28   16   17 ar
  29   16   32 1
  30   17   18 ar
  31   17   21 1
  32   18   19 ar
  33   18   22 1
  34   19   20 ar
  35   19   33 1
  36   20   34 1
  37   21   35 1
  38   21   36 1
  39   21   37 1

#	End of record

