#	Name: ASD01916976
#	Creating user name:	WinNT
#	Creation time:	15. 06. 2019 20:08

#	Modifying user name:	WinNT
#	Modification time:	15. 06. 2019 20:08

#	Program:	/corina/corina34_cracker 3.40 0067  02.08.2006

@<TRIPOS>MOLECULE
ASD01916976
  47   50    0    0    0
SMALL
NO_CHARGES


@<TRIPOS>ATOM
   1 C1            -0.0171     1.4098     0.0098 C.ar    
   2 C2             0.0021    -0.0041     0.0020 C.ar    
   3 C3            -1.1913    -0.7261     0.0153 C.ar    
   4 C4            -2.3842    -0.0650     0.0392 C.ar    
   5 C5            -2.4218     1.3377     0.0460 C.ar    
   6 C6            -1.2408     2.0758     0.0308 C.ar    
   7 N7             1.1589     2.0863     0.0022 N.2     
   8 C8             2.3037     1.4741    -0.0067 C.2     
   9 N9             2.4090     0.1105    -0.0100 N.am    
  10 C10            1.3115    -0.6723    -0.0141 C.2     
  11 C11           -3.7195     2.0343     0.0705 C.2     
  12 O12            1.4012    -1.8863    -0.0302 O.2     
  13 C13           -4.8614     1.3270     0.0863 C.2     
  14 C14           -6.1594     2.0238     0.1109 C.ar    
  15 N15           -6.1935     3.3530     0.1118 N.ar    
  16 C16            3.5860     2.2776    -0.0162 C.3     
  17 C17            4.2226     2.1850    -1.4001 C.3     
  18 C18            5.1368     0.9771    -1.5037 C.3     
  19 C19            4.3725    -0.3315    -1.3920 C.3     
  20 C20            3.7500    -0.4868    -0.0062 C.3     
  21 C21            5.8606     1.0161    -2.8510 C.3     
  22 C22           -7.3419     1.2826     0.1273 C.ar    
  23 C23           -8.5626     1.9609     0.1505 C.ar    
  24 C24           -8.5430     3.3614     0.1563 C.ar    
  25 C25           -7.3283     4.0201     0.1333 C.ar    
  26 C26           -9.8017     1.2433     0.1674 C.1     
  27 N27          -10.7847     0.6741     0.1808 N.1     
  28 H28           -1.1709    -1.8059     0.0062 H       
  29 H29           -3.3071    -0.6257     0.0527 H       
  30 H30           -1.2733     3.1553     0.0329 H       
  31 H31           -3.7528     3.1138     0.0758 H       
  32 H32           -4.8281     0.2475     0.0811 H       
  33 H33            3.3649     3.3197     0.2143 H       
  34 H34            4.2731     1.8762     0.7287 H       
  35 H35            3.4363     2.1034    -2.1505 H       
  36 H36            4.8021     3.0888    -1.5880 H       
  37 H37            5.8768     1.0239    -0.7048 H       
  38 H38            3.5828    -0.3498    -2.1431 H       
  39 H39            5.0558    -1.1614    -1.5723 H       
  40 H40            4.3723     0.0199     0.7314 H       
  41 H41            3.6765    -1.5452     0.2435 H       
  42 H42            6.4497     1.9305    -2.9206 H       
  43 H43            6.5198     0.1520    -2.9345 H       
  44 H44            5.1281     0.9935    -3.6578 H       
  45 H45           -7.3136     0.2030     0.1217 H       
  46 H46           -9.4670     3.9203     0.1736 H       
  47 H47           -7.3095     5.1000     0.1381 H       
@<TRIPOS>BOND
   1    1    2 ar
   2    1    7 1
   3    1    6 ar
   4    2    3 ar
   5    2   10 1
   6    3    4 ar
   7    3   28 1
   8    4    5 ar
   9    4   29 1
  10    5    6 ar
  11    5   11 1
  12    6   30 1
  13    7    8 2
  14    8    9 1
  15    8   16 1
  16    9   10 am
  17    9   20 1
  18   10   12 2
  19   11   13 2
  20   11   31 1
  21   13   14 1
  22   13   32 1
  23   14   22 ar
  24   14   15 ar
  25   15   25 ar
  26   16   17 1
  27   16   33 1
  28   16   34 1
  29   17   18 1
  30   17   35 1
  31   17   36 1
  32   18   19 1
  33   18   21 1
  34   18   37 1
  35   19   20 1
  36   19   38 1
  37   19   39 1
  38   20   40 1
  39   20   41 1
  40   21   42 1
  41   21   43 1
  42   21   44 1
  43   22   23 ar
  44   22   45 1
  45   23   24 ar
  46   23   26 1
  47   24   25 ar
  48   24   46 1
  49   25   47 1
  50   26   27 3

#	End of record

