#	Name: ASD01141017
#	Creating user name:	WinNT
#	Creation time:	15. 06. 2019 19:01

#	Modifying user name:	WinNT
#	Modification time:	15. 06. 2019 19:01

#	Program:	/corina/corina34_cracker 3.40 0067  02.08.2006

@<TRIPOS>MOLECULE
ASD01141017
  48   50    0    0    0
SMALL
NO_CHARGES


@<TRIPOS>ATOM
   1 P1             0.1376     1.3226     0.1881 P.3     
   2 O2            -0.3142    -0.0665    -0.0498 O.2     
   3 O3             1.6780     1.3132     0.6562 O.3     
   4 O4            -0.0051     2.1736    -1.1712 O.3     
   5 N5            -0.7856     2.0047     1.3595 N.pl3   
   6 C6            -0.3587     3.1741     1.9928 C.ar    
   7 C7             0.7783     3.8337     1.5436 C.ar    
   8 C8             1.1977     4.9897     2.1721 C.ar    
   9 C9             0.4871     5.4907     3.2475 C.ar    
  10 C10           -0.6452     4.8365     3.6972 C.ar    
  11 C11           -1.0733     3.6832     3.0697 C.ar    
  12 C12           -4.2745     1.0877     1.2097 C.2     
  13 C13           -4.3701    -0.1417     2.0665 C.3     
  14 C14           -2.9781    -0.7248     2.3203 C.3     
  15 C15           -2.0545     0.4066     2.7949 C.3     
  16 N16           -2.0025     1.4143     1.7249 N.pl3   
  17 N17           -3.1923     1.7732     1.0776 N.2     
  18 C18           -5.4773     1.5284     0.4789 C.ar    
  19 C19           -5.4284     2.6675    -0.3285 C.ar    
  20 C20           -6.5549     3.0753    -1.0101 C.ar    
  21 C21           -7.7372     2.3562    -0.8948 C.ar    
  22 C22           -7.7906     1.2236    -0.0930 C.ar    
  23 C23           -6.6674     0.8047     0.5874 C.ar    
  24 C24            2.1888     0.4048     1.6339 C.3     
  25 O25           -8.8454     2.7622    -1.5681 O.3     
  26 C26          -10.0279     1.9767    -1.4048 C.3     
  27 H27           -0.9087     2.2218    -1.5120 H       
  28 H28            1.3339     3.4428     0.7040 H       
  29 H29            2.0817     5.5029     1.8236 H       
  30 H30            0.8174     6.3947     3.7374 H       
  31 H31           -1.1976     5.2302     4.5376 H       
  32 H32           -1.9603     3.1752     3.4186 H       
  33 H33           -4.8315     0.1179     3.0193 H       
  34 H34           -4.9862    -0.8859     1.5617 H       
  35 H35           -3.0384    -1.4951     3.0892 H       
  36 H36           -2.5872    -1.1541     1.3978 H       
  37 H37           -2.4543     0.8536     3.7051 H       
  38 H38           -1.0550     0.0143     2.9825 H       
  39 H39           -4.5095     3.2278    -0.4183 H       
  40 H40           -6.5180     3.9558    -1.6345 H       
  41 H41           -8.7124     0.6678    -0.0057 H       
  42 H42           -6.7086    -0.0788     1.2071 H       
  43 H43            3.2525     0.5910     1.7822 H       
  44 H44            1.6598     0.5497     2.5759 H       
  45 H45            2.0437    -0.6191     1.2895 H       
  46 H46          -10.8359     2.4094    -1.9947 H       
  47 H47           -9.8369     0.9580    -1.7424 H       
  48 H48          -10.3129     1.9634    -0.3528 H       
@<TRIPOS>BOND
   1    1    2 2
   2    1    3 1
   3    1    4 1
   4    1    5 1
   5    3   24 1
   6    4   27 1
   7    5    6 1
   8    5   16 1
   9    6    7 ar
  10    6   11 ar
  11    7    8 ar
  12    7   28 1
  13    8    9 ar
  14    8   29 1
  15    9   10 ar
  16    9   30 1
  17   10   11 ar
  18   10   31 1
  19   11   32 1
  20   12   13 1
  21   12   17 2
  22   12   18 1
  23   13   14 1
  24   13   33 1
  25   13   34 1
  26   14   15 1
  27   14   35 1
  28   14   36 1
  29   15   16 1
  30   15   37 1
  31   15   38 1
  32   16   17 1
  33   18   19 ar
  34   18   23 ar
  35   19   20 ar
  36   19   39 1
  37   20   21 ar
  38   20   40 1
  39   21   22 ar
  40   21   25 1
  41   22   23 ar
  42   22   41 1
  43   23   42 1
  44   24   43 1
  45   24   44 1
  46   24   45 1
  47   25   26 1
  48   26   46 1
  49   26   47 1
  50   26   48 1

#	End of record

