#	Name: ASD08150768
#	Creating user name:	WinNT
#	Creation time:	15. 06. 2019 21:16

#	Modifying user name:	WinNT
#	Modification time:	15. 06. 2019 21:16

#	Program:	/corina/corina34_cracker 3.40 0067  02.08.2006

@<TRIPOS>MOLECULE
ASD08150768
  32   34    0    0    0
SMALL
NO_CHARGES


@<TRIPOS>ATOM
   1 C1            -0.0158     1.3168     0.0093 C.2     
   2 N2             0.0021    -0.0041     0.0020 N.2     
   3 C3             1.1387    -0.6846    -0.0125 C.2     
   4 C4             2.3424     0.0131    -0.0203 C.2     
   5 C5             2.3160     1.4197    -0.0125 C.2     
   6 N6             1.1169     2.0725     0.0025 N.am    
   7 S7            -1.3640     2.4677     0.0210 S.3     
   8 C8             0.9183     3.4311     0.0118 C.2     
   9 C9            -0.3178     3.8980     0.0246 C.2     
  10 O10            3.3590     2.0528    -0.0187 O.2     
  11 C11            3.6328    -0.7145    -0.0361 C.ar    
  12 C12            4.4822    -0.6084    -1.1368 C.ar    
  13 C13            5.6853    -1.2888    -1.1466 C.ar    
  14 C14            6.0478    -2.0750    -0.0652 C.ar    
  15 C15            5.2072    -2.1840     1.0305 C.ar    
  16 C16            4.0046    -1.5030     1.0522 C.ar    
  17 F17            5.5660    -2.9527     2.0819 F       
  18 F18            6.5089    -1.1871    -2.2127 F       
  19 C19            1.1279    -2.1915    -0.0200 C.3     
  20 C20            0.5274    -2.7038     1.2907 C.3     
  21 N21            0.3190    -2.6698    -1.1491 N.3     
  22 H22            1.7598     4.1080     0.0074 H       
  23 H23           -0.6257     4.9332     0.0310 H       
  24 H24            4.2003     0.0041    -1.9805 H       
  25 H25            6.9887    -2.6051    -0.0766 H       
  26 H26            3.3521    -1.5847     1.9089 H       
  27 H27            2.1481    -2.5617    -0.1214 H       
  28 H28            1.1277    -2.3489     2.1285 H       
  29 H29           -0.4928    -2.3336     1.3921 H       
  30 H30            0.5197    -3.7937     1.2853 H       
  31 H31            0.6571    -2.2924    -2.0216 H       
  32 H32            0.2961    -3.6782    -1.1760 H       
@<TRIPOS>BOND
   1    1    2 2
   2    1    6 1
   3    1    7 1
   4    2    3 1
   5    3    4 2
   6    3   19 1
   7    4    5 1
   8    4   11 1
   9    5    6 am
  10    5   10 2
  11    6    8 1
  12    7    9 1
  13    8    9 2
  14    8   22 1
  15    9   23 1
  16   11   12 ar
  17   11   16 ar
  18   12   13 ar
  19   12   24 1
  20   13   14 ar
  21   13   18 1
  22   14   15 ar
  23   14   25 1
  24   15   16 ar
  25   15   17 1
  26   16   26 1
  27   19   20 1
  28   19   21 1
  29   19   27 1
  30   20   28 1
  31   20   29 1
  32   20   30 1
  33   21   31 1
  34   21   32 1

#	End of record

