#	Name: ASD09800013
#	Creating user name:	WinNT
#	Creation time:	15. 06. 2019 21:24

#	Modifying user name:	WinNT
#	Modification time:	15. 06. 2019 21:24

#	Program:	/corina/corina34_cracker 3.40 0067  02.08.2006

@<TRIPOS>MOLECULE
ASD09800013
  76   82    0    0    0
SMALL
NO_CHARGES


@<TRIPOS>ATOM
   1 C1             5.7962     2.0046     3.4879 C.ar    
   2 C2             5.9450     2.1745     4.8489 C.ar    
   3 C3             5.4262     3.2967     5.4778 C.ar    
   4 C4             4.7558     4.2565     4.7533 C.ar    
   5 C5             4.5966     4.0995     3.3740 C.ar    
   6 C6             5.1239     2.9611     2.7423 C.ar    
   7 N7             4.0000     4.8508     2.4119 N.2     
   8 C8             4.1247     4.2579     1.2505 C.2     
   9 N9             4.8113     3.0865     1.3988 N.pl3   
  10 N10            3.6358     4.7444     0.0555 N.pl3   
  11 C11            2.8371     5.8911     0.0423 C.ar    
  12 C12            2.3844     6.4351     1.2245 C.ar    
  13 C13            2.4931     6.5037    -1.1817 C.ar    
  14 C14            1.6825     7.6651    -1.1732 C.ar    
  15 C15            1.2344     8.1887     0.0564 C.ar    
  16 C16            1.5883     7.5767     1.2253 C.ar    
  17 C17            2.9396     5.9837    -2.4069 C.ar    
  18 C18            2.5888     6.6008    -3.5688 C.ar    
  19 C19            1.7916     7.7437    -3.5609 C.ar    
  20 C20            1.3402     8.2746    -2.3915 C.ar    
  21 O21            0.4560     9.3025     0.0793 O.3     
  22 C22           -0.8688     9.1582    -0.1675 C.ar    
  23 C23           -1.6870    10.2918    -0.2597 C.ar    
  24 N24           -1.3793     7.9489    -0.3251 N.ar    
  25 C25           -3.0491    10.1207    -0.5150 C.ar    
  26 C26           -3.5336     8.8317    -0.6666 C.ar    
  27 C27           -2.6629     7.7629    -0.5671 C.ar    
  28 C28           -1.1170    11.6485    -0.0888 C.ar    
  29 N29            0.1819    11.8103     0.1551 N.ar    
  30 C30           -1.9338    12.7793    -0.1868 C.ar    
  31 C31           -1.3569    14.0248    -0.0204 C.ar    
  32 N32           -0.0585    14.1100     0.2250 N.ar    
  33 C33            0.6930    13.0218     0.3077 C.ar    
  34 N34            2.0463    13.1550     0.5662 N.pl3   
  35 C35            2.6303    14.4867     0.7445 C.3     
  36 C36            4.1301    14.3536     1.0163 C.3     
  37 N37            4.7158    15.6888     1.1950 N.3     
  38 C38            6.1582    15.6001     1.4585 C.3     
  39 C39            6.9159    15.5177     0.1314 C.3     
  40 N40            8.3592    15.4502     0.3937 N.3     
  41 C41            8.8298    16.6558     1.0874 C.3     
  42 C42            8.1293    16.7721     2.4431 C.3     
  43 C43            6.6153    16.8441     2.2253 C.3     
  44 H44            6.2064     1.1308     3.0035 H       
  45 H45            6.4685     1.4286     5.4285 H       
  46 H46            5.5488     3.4183     6.5439 H       
  47 H47            4.3541     5.1276     5.2494 H       
  48 H48            5.0379     2.4593     0.6944 H       
  49 H49            3.8465     4.2905    -0.7755 H       
  50 H50            2.6503     5.9697     2.1621 H       
  51 H51            1.2418     7.9826     2.1642 H       
  52 H52            3.5586     5.0990    -2.4277 H       
  53 H53            2.9336     6.1988    -4.5101 H       
  54 H54            1.5278     8.2149    -4.4962 H       
  55 H55            0.7228     9.1607    -2.4004 H       
  56 H56           -3.7088    10.9723    -0.5921 H       
  57 H57           -4.5819     8.6637    -0.8646 H       
  58 H58           -3.0405     6.7580    -0.6856 H       
  59 H59           -2.9904    12.6821    -0.3881 H       
  60 H60           -1.9589    14.9188    -0.0901 H       
  61 H61            2.6079    12.3667     0.6293 H       
  62 H62            2.4758    15.0752    -0.1599 H       
  63 H63            2.1510    14.9837     1.5878 H       
  64 H64            4.2846    13.7650     1.9206 H       
  65 H65            4.6095    13.8565     0.1729 H       
  66 H66            4.5297    16.2753     0.3954 H       
  67 H67            6.3656    14.7095     2.0518 H       
  68 H68            6.6031    14.6253    -0.4106 H       
  69 H69            6.6966    16.4017    -0.4674 H       
  70 H70            8.5935    14.6185     0.9147 H       
  71 H71            9.9071    16.5900     1.2398 H       
  72 H72            8.6015    17.5345     0.4841 H       
  73 H73            8.3683    15.9004     3.0522 H       
  74 H74            8.4672    17.6754     2.9510 H       
  75 H75            6.3723    17.7369     1.6491 H       
  76 H76            6.1100    16.8834     3.1903 H       
@<TRIPOS>BOND
   1    1    2 ar
   2    1    6 ar
   3    1   44 1
   4    2    3 ar
   5    2   45 1
   6    3    4 ar
   7    3   46 1
   8    4    5 ar
   9    4   47 1
  10    5    6 ar
  11    5    7 1
  12    6    9 1
  13    7    8 2
  14    8    9 1
  15    8   10 1
  16    9   48 1
  17   10   11 1
  18   10   49 1
  19   11   12 ar
  20   11   13 ar
  21   12   16 ar
  22   12   50 1
  23   13   14 ar
  24   13   17 ar
  25   14   15 ar
  26   14   20 ar
  27   15   16 ar
  28   15   21 1
  29   16   51 1
  30   17   18 ar
  31   17   52 1
  32   18   19 ar
  33   18   53 1
  34   19   20 ar
  35   19   54 1
  36   20   55 1
  37   21   22 1
  38   22   23 ar
  39   22   24 ar
  40   23   25 ar
  41   23   28 1
  42   24   27 ar
  43   25   26 ar
  44   25   56 1
  45   26   27 ar
  46   26   57 1
  47   27   58 1
  48   28   29 ar
  49   28   30 ar
  50   29   33 ar
  51   30   31 ar
  52   30   59 1
  53   31   32 ar
  54   31   60 1
  55   32   33 ar
  56   33   34 1
  57   34   35 1
  58   34   61 1
  59   35   36 1
  60   35   62 1
  61   35   63 1
  62   36   37 1
  63   36   64 1
  64   36   65 1
  65   37   38 1
  66   37   66 1
  67   38   39 1
  68   38   43 1
  69   38   67 1
  70   39   40 1
  71   39   68 1
  72   39   69 1
  73   40   41 1
  74   40   70 1
  75   41   42 1
  76   41   71 1
  77   41   72 1
  78   42   43 1
  79   42   73 1
  80   42   74 1
  81   43   75 1
  82   43   76 1

#	End of record

