#	Name: ASD02038032
#	Creating user name:	WinNT
#	Creation time:	15. 06. 2019 20:16

#	Modifying user name:	WinNT
#	Modification time:	15. 06. 2019 20:16

#	Program:	/corina/corina34_cracker 3.40 0067  02.08.2006

@<TRIPOS>MOLECULE
ASD02038032
  40   42    0    0    0
SMALL
NO_CHARGES


@<TRIPOS>ATOM
   1 C1            -0.0165     1.3838     0.0025 C.ar    
   2 N2             1.1853     2.1020     0.0020 N.am    
   3 N3             2.3162     4.1441     0.0016 N.am    
   4 C4             1.1670     3.4463    -0.0923 C.2     
   5 C5             5.2020     5.9249     0.4370 C.3     
   6 O6             6.2250     5.6164     1.3858 O.3     
   7 C7             7.4472     6.1757     1.1796 C.ar    
   8 C8             8.4856     5.9182     2.0623 C.ar    
   9 C9             7.6570     6.9992     0.0834 C.ar    
  10 C10            8.8985     7.5673    -0.1261 C.ar    
  11 C11            9.9352     7.3147     0.7600 C.ar    
  12 C12            9.7271     6.4864     1.8529 C.ar    
  13 O13            0.1137     4.0295    -0.2622 O.2     
  14 C14           -0.1443     0.2424     0.7828 C.ar    
  15 O15           11.1575     7.8737     0.5535 O.3     
  16 C16           -1.0846     1.8151    -0.7728 C.ar    
  17 C17           -2.2693     1.1051    -0.7702 C.ar    
  18 C18           -2.3925    -0.0348     0.0046 C.ar    
  19 C19           -1.3328    -0.4611     0.7859 C.ar    
  20 Cl20          -3.8831    -0.9246     0.0061 Cl      
  21 C21            2.7007     5.5628    -0.0481 C.3     
  22 C22            3.9079     5.2105     0.8320 C.3     
  23 C23            3.7367     3.8225     0.2055 C.3     
  24 H24            2.0311     1.6320     0.0696 H       
  25 H25            5.0327     7.0016     0.4224 H       
  26 H26            5.5128     5.5925    -0.5534 H       
  27 H27            8.3234     5.2738     2.9136 H       
  28 H28            6.8498     7.1959    -0.6066 H       
  29 H29            9.0621     8.2079    -0.9801 H       
  30 H30           10.5342     6.2900     2.5430 H       
  31 H31            0.6852    -0.0953     1.3865 H       
  32 H32           11.2714     8.7369     0.9742 H       
  33 H33           -0.9893     2.7051    -1.3772 H       
  34 H34           -3.1004     1.4401    -1.3731 H       
  35 H35           -1.4314    -1.3511     1.3897 H       
  36 H36            2.9759     5.9032    -1.0464 H       
  37 H37            1.9852     6.2238     0.4409 H       
  38 H38            3.7050     5.2422     1.9024 H       
  39 H39            3.9024     3.0058     0.9080 H       
  40 H40            4.2877     3.6960    -0.7264 H       
@<TRIPOS>BOND
   1    1   16 ar
   2    1    2 1
   3    1   14 ar
   4    2    4 am
   5    2   24 1
   6    3    4 am
   7    3   21 1
   8    3   23 1
   9    4   13 2
  10    5    6 1
  11    5   22 1
  12    5   25 1
  13    5   26 1
  14    6    7 1
  15    7    8 ar
  16    7    9 ar
  17    8   12 ar
  18    8   27 1
  19    9   10 ar
  20    9   28 1
  21   10   11 ar
  22   10   29 1
  23   11   12 ar
  24   11   15 1
  25   12   30 1
  26   14   19 ar
  27   14   31 1
  28   15   32 1
  29   16   17 ar
  30   16   33 1
  31   17   18 ar
  32   17   34 1
  33   18   19 ar
  34   18   20 1
  35   19   35 1
  36   21   22 1
  37   21   36 1
  38   21   37 1
  39   22   23 1
  40   22   38 1
  41   23   39 1
  42   23   40 1

#	End of record

