#	Name: ASD08178523
#	Creating user name:	WinNT
#	Creation time:	15. 06. 2019 21:19

#	Modifying user name:	WinNT
#	Modification time:	15. 06. 2019 21:19

#	Program:	/corina/corina34_cracker 3.40 0067  02.08.2006

@<TRIPOS>MOLECULE
ASD08178523
  64   67    0    0    0
SMALL
NO_CHARGES


@<TRIPOS>ATOM
   1 C1            -0.6447     1.8303    -0.6650 C.ar    
   2 C2            -0.6438     0.3284    -0.5410 C.3     
   3 C3             0.0969    -0.2813    -1.7329 C.3     
   4 C4             0.0979    -1.8061    -1.6070 C.3     
   5 C5             0.8386    -2.4158    -2.7988 C.3     
   6 C6             0.8396    -3.9177    -2.6748 C.ar    
   7 N7             1.3065    -4.4887    -1.5820 N.ar    
   8 N8             0.4937     2.4812    -0.8010 N.ar    
   9 N9             0.5437     3.7591    -0.9101 N.ar    
  10 C10           -0.5475     4.5097    -0.8933 C.ar    
  11 C11           -1.7971     3.9087    -0.7534 C.ar    
  12 C12           -1.8441     2.5276    -0.6418 C.ar    
  13 N13           -0.4463     5.8952    -1.0146 N.am    
  14 C14            0.7665     6.4823    -1.0450 C.2     
  15 O15            1.7663     5.8177    -0.8732 O.2     
  16 C16            0.8801     7.9644    -1.2926 C.3     
  17 C17            2.3325     8.3663    -1.2775 C.ar    
  18 C18            3.0668     8.3487    -2.4486 C.ar    
  19 C19            4.3990     8.7172    -2.4347 C.ar    
  20 C20            4.9968     9.1039    -1.2498 C.ar    
  21 C21            4.2623     9.1225    -0.0789 C.ar    
  22 C22            2.9289     8.7580    -0.0935 C.ar    
  23 N23            1.3281    -5.7630    -1.4302 N.ar    
  24 C24            0.8818    -6.5902    -2.3633 C.ar    
  25 C25            0.3694    -6.0770    -3.5534 C.ar    
  26 C26            0.3438    -4.6995    -3.7084 C.ar    
  27 N27            0.9249    -7.9685    -2.1562 N.am    
  28 C28            1.5134    -8.4657    -1.0503 C.2     
  29 O29            1.9234    -7.7139    -0.1915 O.2     
  30 C30            1.6619    -9.9557    -0.8808 C.3     
  31 C31            2.3469   -10.2465     0.4296 C.ar    
  32 C32            1.5968   -10.4237     1.5772 C.ar    
  33 C33            3.7249   -10.3415     0.4830 C.ar    
  34 C34            4.3533   -10.6082     1.6851 C.ar    
  35 C35            3.6036   -10.7795     2.8338 C.ar    
  36 C36            2.2252   -10.6904     2.7793 C.ar    
  37 H37           -0.1436     0.0405     0.3836 H       
  38 H38           -1.6711    -0.0357    -0.5269 H       
  39 H39           -0.4033     0.0066    -2.6575 H       
  40 H40            1.1242     0.0827    -1.7470 H       
  41 H41            0.5981    -2.0940    -0.6823 H       
  42 H42           -0.9294    -2.1702    -1.5928 H       
  43 H43            0.3384    -2.1279    -3.7234 H       
  44 H44            1.8659    -2.0518    -2.8130 H       
  45 H45           -2.7007     4.4998    -0.7370 H       
  46 H46           -2.7858     2.0104    -0.5314 H       
  47 H47           -1.2489     6.4365    -1.0770 H       
  48 H48            0.4467     8.2050    -2.2634 H       
  49 H49            0.3453     8.5053    -0.5119 H       
  50 H50            2.5997     8.0465    -3.3743 H       
  51 H51            4.9729     8.7028    -3.3495 H       
  52 H52            6.0379     9.3912    -1.2388 H       
  53 H53            4.7295     9.4243     0.8469 H       
  54 H54            2.3551     8.7725     0.8213 H       
  55 H55           -0.0002    -6.7316    -4.3288 H       
  56 H56           -0.0427    -4.2485    -4.6104 H       
  57 H57            0.5313    -8.5695    -2.8080 H       
  58 H58            0.6767   -10.4221    -0.8871 H       
  59 H59            2.2590   -10.3568    -1.6998 H       
  60 H60            0.5200   -10.3536     1.5347 H       
  61 H61            4.3106   -10.2077    -0.4144 H       
  62 H62            5.4298   -10.6832     1.7267 H       
  63 H63            4.0945   -10.9881     3.7729 H       
  64 H64            1.6395   -10.8242     3.6767 H       
@<TRIPOS>BOND
   1    1    2 1
   2    1    8 ar
   3    1   12 ar
   4    2    3 1
   5    2   37 1
   6    2   38 1
   7    3    4 1
   8    3   39 1
   9    3   40 1
  10    4    5 1
  11    4   41 1
  12    4   42 1
  13    5    6 1
  14    5   43 1
  15    5   44 1
  16    6    7 ar
  17    6   26 ar
  18    7   23 ar
  19    8    9 ar
  20    9   10 ar
  21   10   11 ar
  22   10   13 1
  23   11   12 ar
  24   11   45 1
  25   12   46 1
  26   13   14 am
  27   13   47 1
  28   14   15 2
  29   14   16 1
  30   16   17 1
  31   16   48 1
  32   16   49 1
  33   17   18 ar
  34   17   22 ar
  35   18   19 ar
  36   18   50 1
  37   19   20 ar
  38   19   51 1
  39   20   21 ar
  40   20   52 1
  41   21   22 ar
  42   21   53 1
  43   22   54 1
  44   23   24 ar
  45   24   25 ar
  46   24   27 1
  47   25   26 ar
  48   25   55 1
  49   26   56 1
  50   27   28 am
  51   27   57 1
  52   28   29 2
  53   28   30 1
  54   30   31 1
  55   30   58 1
  56   30   59 1
  57   31   32 ar
  58   31   33 ar
  59   32   36 ar
  60   32   60 1
  61   33   34 ar
  62   33   61 1
  63   34   35 ar
  64   34   62 1
  65   35   36 ar
  66   35   63 1
  67   36   64 1

#	End of record

