#	Name: ASD01940567
#	Creating user name:	WinNT
#	Creation time:	15. 06. 2019 20:12

#	Modifying user name:	WinNT
#	Modification time:	15. 06. 2019 20:12

#	Program:	/corina/corina34_cracker 3.40 0067  02.08.2006

@<TRIPOS>MOLECULE
ASD01940567
  81   87    0    0    0
SMALL
NO_CHARGES


@<TRIPOS>ATOM
   1 C1             0.0887     1.4752    -0.5085 C.ar    
   2 C2             0.4278     0.6429     0.5481 C.ar    
   3 C3             1.6500    -0.0148     0.5449 C.ar    
   4 C4             2.5296     0.1624    -0.5157 C.ar    
   5 C5             2.1886     0.9923    -1.5666 C.ar    
   6 C6             0.9728     1.6482    -1.5662 C.ar    
   7 N7            -1.1460     2.1361    -0.5118 N.am    
   8 C8            -1.1949     3.4815    -0.1913 C.2     
   9 C9            -2.4435     4.1481    -0.1951 C.2     
  10 C10           -3.6496     3.3668    -0.5445 C.2     
  11 N11           -3.4788     2.0085    -0.8515 N.am    
  12 C12           -2.2565     1.4522    -0.8311 C.2     
  13 C13           -0.0568     4.1960     0.1329 C.2     
  14 C14           -0.1689     5.5526     0.4472 C.2     
  15 N15           -1.3639     6.1694     0.4390 N.am    
  16 C16           -2.5070     5.4928     0.1233 C.2     
  17 N17           -3.7161     6.1451     0.1218 N.pl3   
  18 C18           -1.4406     7.5934     0.7748 C.3     
  19 O19            0.8338     6.1882     0.7343 O.2     
  20 C20            1.2896     3.5191     0.1476 C.3     
  21 C21           -4.8589     3.9342    -0.5667 C.2     
  22 C22           -4.5925     1.2269    -1.1888 C.ar    
  23 N23            1.9959    -0.8545     1.6084 N.am    
  24 C24            1.6003    -0.5532     2.8611 C.2     
  25 C25            1.8647    -1.4969     3.9661 C.ar    
  26 O26            1.0259     0.4954     3.0815 O.2     
  27 C27           -4.4970     6.1738     1.2825 C.ar    
  28 C28           -4.0080     5.6324     2.4638 C.ar    
  29 C29           -4.7813     5.6621     3.6080 C.ar    
  30 C30           -6.0416     6.2303     3.5791 C.ar    
  31 C31           -6.5333     6.7710     2.4052 C.ar    
  32 C32           -5.7626     6.7499     1.2571 C.ar    
  33 F33           -6.2405     7.2831     0.1114 F       
  34 O34           -2.1516     0.2732    -1.1087 O.2     
  35 C35           -6.8816     6.2600     4.8299 C.3     
  36 C36            1.4556    -1.1867     5.2648 C.ar    
  37 C37            1.7056    -2.0738     6.2960 C.ar    
  38 C38            2.3629    -3.2721     6.0397 C.ar    
  39 C39            2.7700    -3.5821     4.7507 C.ar    
  40 C40            2.5191    -2.7042     3.7141 C.ar    
  41 C41           -5.2974     1.4895    -2.3559 C.ar    
  42 C42           -6.3948     0.7197    -2.6885 C.ar    
  43 C43           -6.7938    -0.3160    -1.8574 C.ar    
  44 C44           -6.0898    -0.5802    -0.6894 C.ar    
  45 C45           -4.9877     0.1865    -0.3588 C.ar    
  46 F46            2.6061    -4.1364     7.0492 F       
  47 F47            3.4083    -4.7477     4.5074 F       
  48 O48            1.3087    -1.7739     7.5614 O.3     
  49 F49           -6.4785    -1.5893     0.1203 F       
  50 O50           -7.8750    -1.0733    -2.1857 O.3     
  51 C51           -7.3083     7.6296     5.3621 C.3     
  52 C52           -8.3362     6.7145     4.6935 C.3     
  53 H53           -0.2576     0.5071     1.3716 H       
  54 H54            3.4809    -0.3487    -0.5187 H       
  55 H55            2.8742     1.1287    -2.3898 H       
  56 H56            0.7093     2.2961    -2.3891 H       
  57 H57           -4.0284     6.5858    -0.6840 H       
  58 H58           -0.4571     7.9473     1.0839 H       
  59 H59           -1.7710     8.1554    -0.0987 H       
  60 H60           -2.1508     7.7369     1.5892 H       
  61 H61            1.6986     3.5018    -0.8626 H       
  62 H62            1.9651     4.0680     0.8037 H       
  63 H63            1.1789     2.4979     0.5123 H       
  64 H64           -4.9794     4.9612    -0.2549 H       
  65 H65           -5.7161     3.3659    -0.8965 H       
  66 H66            2.5205    -1.6537     1.4445 H       
  67 H67           -3.0240     5.1879     2.4879 H       
  68 H68           -4.4009     5.2406     4.5268 H       
  69 H69           -7.5182     7.2137     2.3859 H       
  70 H70           -6.6638     5.4815     5.5611 H       
  71 H71            0.9454    -0.2558     5.4635 H       
  72 H72            2.8326    -2.9497     2.7102 H       
  73 H73           -4.9876     2.2963    -3.0037 H       
  74 H74           -6.9428     0.9248    -3.5963 H       
  75 H75           -4.4369    -0.0213     0.5467 H       
  76 H76            0.4174    -2.0806     7.7772 H       
  77 H77           -7.6633    -1.8491    -2.7229 H       
  78 H78           -7.3715     7.7520     6.4433 H       
  79 H79           -6.9814     8.5091     4.8075 H       
  80 H80           -8.6855     6.9921     3.6990 H       
  81 H81           -9.0756     6.2350     5.3349 H       
@<TRIPOS>BOND
   1    1    2 ar
   2    1    6 ar
   3    1    7 1
   4    2    3 ar
   5    2   53 1
   6    3    4 ar
   7    3   23 1
   8    4    5 ar
   9    4   54 1
  10    5    6 ar
  11    5   55 1
  12    6   56 1
  13    7    8 1
  14    7   12 am
  15    8   13 2
  16    8    9 1
  17    9   10 1
  18    9   16 2
  19   10   11 1
  20   10   21 2
  21   11   12 am
  22   11   22 1
  23   12   34 2
  24   13   14 1
  25   13   20 1
  26   14   15 am
  27   14   19 2
  28   15   16 1
  29   15   18 1
  30   16   17 1
  31   17   27 1
  32   17   57 1
  33   18   58 1
  34   18   59 1
  35   18   60 1
  36   20   61 1
  37   20   62 1
  38   20   63 1
  39   21   64 1
  40   21   65 1
  41   22   41 ar
  42   22   45 ar
  43   23   24 am
  44   23   66 1
  45   24   25 1
  46   24   26 2
  47   25   36 ar
  48   25   40 ar
  49   27   28 ar
  50   27   32 ar
  51   28   29 ar
  52   28   67 1
  53   29   30 ar
  54   29   68 1
  55   30   31 ar
  56   30   35 1
  57   31   32 ar
  58   31   69 1
  59   32   33 1
  60   35   51 1
  61   35   52 1
  62   35   70 1
  63   36   37 ar
  64   36   71 1
  65   37   38 ar
  66   37   48 1
  67   38   39 ar
  68   38   46 1
  69   39   40 ar
  70   39   47 1
  71   40   72 1
  72   41   42 ar
  73   41   73 1
  74   42   43 ar
  75   42   74 1
  76   43   44 ar
  77   43   50 1
  78   44   45 ar
  79   44   49 1
  80   45   75 1
  81   48   76 1
  82   50   77 1
  83   51   52 1
  84   51   78 1
  85   51   79 1
  86   52   80 1
  87   52   81 1

#	End of record

