#	Name: ASD01913236
#	Creating user name:	WinNT
#	Creation time:	15. 06. 2019 20:01

#	Modifying user name:	WinNT
#	Modification time:	15. 06. 2019 20:01

#	Program:	/corina/corina34_cracker 3.40 0067  02.08.2006

@<TRIPOS>MOLECULE
ASD01913236
  41   44    0    0    0
SMALL
NO_CHARGES


@<TRIPOS>ATOM
   1 C1            -2.5994     1.1489     0.3208 C.3     
   2 N2            -2.2758    -0.2804     0.2693 N.am    
   3 C3            -3.5162    -1.0082     0.5556 C.3     
   4 C4            -4.6038     0.0111     0.7829 C.ar    
   5 C5            -5.9466    -0.1398     1.0841 C.ar    
   6 C6            -6.7495     0.9726     1.2468 C.ar    
   7 C7            -6.2113     2.2386     1.1090 C.ar    
   8 C8            -4.8714     2.3898     0.8088 C.ar    
   9 C9            -4.0664     1.2754     0.6453 C.ar    
  10 C10           -1.0694    -0.8216     0.0083 C.2     
  11 C11           -0.8777    -2.2831     0.1100 C.ar    
  12 C12           -1.9732    -3.1170     0.3262 C.ar    
  13 C13           -1.7845    -4.4949     0.4212 C.ar    
  14 C14           -0.4955    -5.0311     0.2987 C.ar    
  15 C15            0.5856    -4.1950     0.0842 C.ar    
  16 C16            0.4016    -2.8313    -0.0161 C.ar    
  17 O17           -0.1390    -0.1073    -0.3109 O.2     
  18 C18           -2.9040    -5.3596     0.6437 C.1     
  19 C19           -3.8219    -6.0685     0.8261 C.1     
  20 C20           -4.9415    -6.9332     1.0486 C.ar    
  21 C21           -4.7441    -8.3135     1.1426 C.ar    
  22 C22           -5.8358    -9.1345     1.3581 C.ar    
  23 C23           -7.0914    -8.5524     1.4732 C.ar    
  24 C24           -7.2159    -7.1791     1.3701 C.ar    
  25 N25           -6.1607    -6.4166     1.1697 N.ar    
  26 F26           -0.3085    -6.3659     0.3906 F       
  27 H27           -2.0064     1.6342     1.0960 H       
  28 H28           -2.3937     1.6093    -0.6455 H       
  29 H29           -3.7760    -1.6430    -0.2916 H       
  30 H30           -3.3887    -1.6181     1.4499 H       
  31 H31           -6.3672    -1.1287     1.1918 H       
  32 H32           -7.7970     0.8533     1.4811 H       
  33 H33           -6.8382     3.1089     1.2356 H       
  34 H34           -4.4513     3.3789     0.7009 H       
  35 H35           -2.9639    -2.6975     0.4201 H       
  36 H36            1.5775    -4.6120    -0.0093 H       
  37 H37            1.2496    -2.1849    -0.1880 H       
  38 H38           -3.7534    -8.7330     1.0480 H       
  39 H39           -5.7146   -10.2049     1.4349 H       
  40 H40           -7.9632    -9.1672     1.6414 H       
  41 H41           -8.1917    -6.7249     1.4594 H       
@<TRIPOS>BOND
   1    1    2 1
   2    1    9 1
   3    1   27 1
   4    1   28 1
   5    2    3 1
   6    2   10 am
   7    3    4 1
   8    3   29 1
   9    3   30 1
  10    4    5 ar
  11    4    9 ar
  12    5    6 ar
  13    5   31 1
  14    6    7 ar
  15    6   32 1
  16    7    8 ar
  17    7   33 1
  18    8    9 ar
  19    8   34 1
  20   10   11 1
  21   10   17 2
  22   11   12 ar
  23   11   16 ar
  24   12   13 ar
  25   12   35 1
  26   13   14 ar
  27   13   18 1
  28   14   15 ar
  29   14   26 1
  30   15   16 ar
  31   15   36 1
  32   16   37 1
  33   18   19 3
  34   19   20 1
  35   20   21 ar
  36   20   25 ar
  37   21   22 ar
  38   21   38 1
  39   22   23 ar
  40   22   39 1
  41   23   24 ar
  42   23   40 1
  43   24   25 ar
  44   24   41 1

#	End of record

