#	Name: ASD01914025
#	Creating user name:	WinNT
#	Creation time:	15. 06. 2019 20:02

#	Modifying user name:	WinNT
#	Modification time:	15. 06. 2019 20:02

#	Program:	/corina/corina34_cracker 3.40 0067  02.08.2006

@<TRIPOS>MOLECULE
ASD01914025
  42   44    0    0    0
SMALL
NO_CHARGES


@<TRIPOS>ATOM
   1 C1            -0.0167     1.3805     0.0096 C.ar    
   2 C2             0.0021    -0.0041     0.0020 C.ar    
   3 C3            -1.1846    -0.7133     0.0095 C.ar    
   4 C4            -2.4146     1.3449     0.0439 C.ar    
   5 C5            -1.2242     2.0561     0.0306 C.ar    
   6 O6            -3.6018     2.0059     0.0644 O.3     
   7 C7            -4.7879     1.2089     0.0772 C.3     
   8 C8            -5.9971     2.1080     0.0994 C.ar    
   9 N9            -7.2030     1.5733     0.1138 N.ar    
  10 C10           -8.2919     2.3137     0.1334 C.ar    
  11 C11           -8.2032     3.7061     0.1391 C.ar    
  12 C12           -6.9367     4.3031     0.1241 C.ar    
  13 C13           -5.8242     3.4806     0.1099 C.ar    
  14 C14           -9.4258     4.5371     0.1601 C.2     
  15 N15          -10.6391     3.9506     0.1739 N.am    
  16 O16           -9.3366     5.7493     0.1648 O.2     
  17 C17          -11.8506     4.7740     0.1947 C.3     
  18 C18           -2.3920    -0.0425     0.0251 C.ar    
  19 C19          -13.0156     3.9825    -0.4028 C.3     
  20 F20            1.1440     2.0718     0.0023 F       
  21 C21          -14.3786     4.6744    -0.4709 C.3     
  22 C22          -13.5699     4.4498    -1.7501 C.3     
  23 F23          -11.1165     5.8814     2.1847 F       
  24 F24          -13.3387     5.9440     1.6582 F       
  25 C25          -12.1818     5.1576     1.6384 C.3     
  26 F26          -12.3931     3.9981     2.3922 F       
  27 H27            0.9450    -0.5306    -0.0102 H       
  28 H28           -1.1676    -1.7932     0.0029 H       
  29 H29           -1.2394     3.1359     0.0451 H       
  30 H30           -4.8157     0.5845    -0.8158 H       
  31 H31           -4.7901     0.5750     0.9640 H       
  32 H32           -9.2620     1.8390     0.1448 H       
  33 H33           -6.8310     5.3779     0.1279 H       
  34 H34           -4.8315     3.9057     0.0981 H       
  35 H35          -10.7103     2.9832     0.1701 H       
  36 H36          -11.6860     5.6774    -0.3926 H       
  37 H37           -3.3183    -0.5978     0.0310 H       
  38 H38          -13.0048     2.9102    -0.2073 H       
  39 H39          -15.2643     4.0572    -0.3205 H       
  40 H40          -14.4452     5.6935    -0.0900 H       
  41 H41          -13.1045     5.3212    -2.2108 H       
  42 H42          -13.9237     3.6849    -2.4414 H       
@<TRIPOS>BOND
   1    1    2 ar
   2    1   20 1
   3    1    5 ar
   4    2    3 ar
   5    2   27 1
   6    3   18 ar
   7    3   28 1
   8    4    5 ar
   9    4    6 1
  10    4   18 ar
  11    5   29 1
  12    6    7 1
  13    7    8 1
  14    7   30 1
  15    7   31 1
  16    8    9 ar
  17    8   13 ar
  18    9   10 ar
  19   10   11 ar
  20   10   32 1
  21   11   12 ar
  22   11   14 1
  23   12   13 ar
  24   12   33 1
  25   13   34 1
  26   14   15 am
  27   14   16 2
  28   15   17 1
  29   15   35 1
  30   17   19 1
  31   17   25 1
  32   17   36 1
  33   18   37 1
  34   19   21 1
  35   19   22 1
  36   19   38 1
  37   21   22 1
  38   21   39 1
  39   21   40 1
  40   22   41 1
  41   22   42 1
  42   23   25 1
  43   24   25 1
  44   25   26 1

#	End of record

