#	Name: ASD01410515
#	Creating user name:	WinNT
#	Creation time:	15. 06. 2019 19:18

#	Modifying user name:	WinNT
#	Modification time:	15. 06. 2019 19:18

#	Program:	/corina/corina34_cracker 3.40 0067  02.08.2006

@<TRIPOS>MOLECULE
ASD01410515
  71   74    0    0    0
SMALL
NO_CHARGES


@<TRIPOS>ATOM
   1 C1             3.1200     5.4567     2.3577 C.ar    
   2 C2             3.8013     4.9989     3.4768 C.ar    
   3 C3             4.6356     3.9047     3.3592 C.ar    
   4 N4             4.7903     3.2938     2.2002 N.ar    
   5 C5             4.1583     3.7004     1.1114 C.ar    
   6 C6             3.3036     4.7944     1.1562 C.ar    
   7 O7             4.3471     3.0429    -0.0601 O.3     
   8 C8             5.2691     2.0435    -0.0900 C.ar    
   9 C9             6.6115     2.3438    -0.3071 C.ar    
  10 C10            7.5562     1.3347    -0.3392 C.ar    
  11 C11            7.1712     0.0149    -0.1555 C.ar    
  12 C12            5.8193    -0.2933     0.0637 C.ar    
  13 C13            4.8720     0.7343     0.1006 C.ar    
  14 F14            6.9926     3.6274    -0.4876 F       
  15 N15            8.1237    -1.0023    -0.1888 N.am    
  16 C16            8.6942    -1.4291     0.9552 C.2     
  17 C17            8.5047    -1.6075    -1.4674 C.3     
  18 O18            8.2976    -1.0123     2.0229 O.2     
  19 C19            9.8250    -2.4242     0.9079 C.3     
  20 C20           10.1795    -2.8614     2.3305 C.3     
  21 C21           10.6082    -1.6408     3.1473 C.3     
  22 C22           11.8304    -0.9932     2.4934 C.3     
  23 C23           11.4759    -0.5559     1.0707 C.3     
  24 C24           11.0472    -1.7766     0.2539 C.3     
  25 C25            7.3870    -2.5369    -1.9449 C.3     
  26 C26            8.7307    -0.5066    -2.5055 C.3     
  27 C27           12.2591     0.2274     3.3102 C.3     
  28 C28            6.3236    -0.6323    -3.1631 C.3     
  29 C29            6.0976    -1.7333    -2.1250 C.3     
  30 C30            7.4413     0.2971    -2.6857 C.3     
  31 O31            5.1193     0.1183    -3.3314 O.3     
  32 C32            4.9555     0.6686    -4.6400 C.3     
  33 C33            2.5853     5.2537    -0.0864 C.3     
  34 F34            1.7911     6.3645     0.2177 F       
  35 F35            3.5226     5.6041    -1.0641 F       
  36 F36            1.7755     4.2188    -0.5664 F       
  37 C37            5.4018    -1.6918     0.2597 C.2     
  38 O38            6.2374    -2.5716     0.3280 O.2     
  39 O39            4.0929    -1.9961     0.3634 O.3     
  40 H40            2.4583     6.3077     2.4237 H       
  41 H41            3.6807     5.4933     4.4294 H       
  42 H42            5.1683     3.5446     4.2270 H       
  43 H43            8.5956     1.5746    -0.5080 H       
  44 H44            3.8304     0.5040     0.2687 H       
  45 H45            9.4233    -2.1801    -1.3391 H       
  46 H46            9.5196    -3.2938     0.3259 H       
  47 H47            9.3088    -3.3228     2.7964 H       
  48 H48           10.9974    -3.5812     2.2963 H       
  49 H49            9.7904    -0.9211     3.1816 H       
  50 H50           10.8608    -1.9523     4.1609 H       
  51 H51           12.6483    -1.7129     2.4591 H       
  52 H52           10.6581     0.1638     1.1050 H       
  53 H53           12.3467    -0.0946     0.6048 H       
  54 H54           11.8651    -2.4963     0.2196 H       
  55 H55           10.7947    -1.4650    -0.7597 H       
  56 H56            7.6704    -2.9872    -2.8962 H       
  57 H57            7.2259    -3.3213    -1.2053 H       
  58 H58            9.5270     0.1555    -2.1654 H       
  59 H59            9.0142    -0.9569    -3.4569 H       
  60 H60           12.5117    -0.0841     4.3237 H       
  61 H61           13.1299     0.6888     2.8443 H       
  62 H62           11.4413     0.9472     3.3445 H       
  63 H63            6.6070    -1.0826    -4.1145 H       
  64 H64            5.3013    -2.3954    -2.4652 H       
  65 H65            5.8141    -1.2830    -1.1737 H       
  66 H66            7.1579     0.7474    -1.7344 H       
  67 H67            7.6024     1.0814    -3.4253 H       
  68 H68            4.9372    -0.1375    -5.3735 H       
  69 H69            4.0183     1.2232    -4.6862 H       
  70 H70            5.7860     1.3398    -4.8585 H       
  71 H71            3.8676    -2.9277     0.4914 H       
@<TRIPOS>BOND
   1    1    2 ar
   2    1    6 ar
   3    1   40 1
   4    2    3 ar
   5    2   41 1
   6    3    4 ar
   7    3   42 1
   8    4    5 ar
   9    5    6 ar
  10    5    7 1
  11    6   33 1
  12    7    8 1
  13    8    9 ar
  14    8   13 ar
  15    9   10 ar
  16    9   14 1
  17   10   11 ar
  18   10   43 1
  19   11   12 ar
  20   11   15 1
  21   12   13 ar
  22   12   37 1
  23   13   44 1
  24   15   16 am
  25   15   17 1
  26   16   18 2
  27   16   19 1
  28   17   26 1
  29   17   25 1
  30   17   45 1
  31   19   20 1
  32   19   24 1
  33   19   46 1
  34   20   21 1
  35   20   47 1
  36   20   48 1
  37   21   22 1
  38   21   49 1
  39   21   50 1
  40   22   23 1
  41   22   27 1
  42   22   51 1
  43   23   24 1
  44   23   52 1
  45   23   53 1
  46   24   54 1
  47   24   55 1
  48   25   29 1
  49   25   56 1
  50   25   57 1
  51   26   30 1
  52   26   58 1
  53   26   59 1
  54   27   60 1
  55   27   61 1
  56   27   62 1
  57   28   29 1
  58   28   31 1
  59   28   30 1
  60   28   63 1
  61   29   64 1
  62   29   65 1
  63   30   66 1
  64   30   67 1
  65   31   32 1
  66   32   68 1
  67   32   69 1
  68   32   70 1
  69   33   34 1
  70   33   35 1
  71   33   36 1
  72   37   38 2
  73   37   39 1
  74   39   71 1

#	End of record

