#	Name: ASD00069468
#	Creating user name:	WinNT
#	Creation time:	15. 06. 2019 18:29

#	Modifying user name:	WinNT
#	Modification time:	15. 06. 2019 18:29

#	Program:	/corina/corina34_cracker 3.40 0067  02.08.2006

@<TRIPOS>MOLECULE
ASD00069468
  14   14    0    0    0
SMALL
NO_CHARGES


@<TRIPOS>ATOM
   1 N1            -0.0158     1.3174     0.0093 N.ar    
   2 C2             0.0021    -0.0041     0.0020 C.ar    
   3 C3             1.1059     2.0108     0.0023 C.ar    
   4 N4             2.2888     1.4279    -0.0121 N.ar    
   5 C5             2.3973     0.1108    -0.0202 C.ar    
   6 C6             1.2340    -0.6639    -0.0133 C.ar    
   7 B7             1.3092    -2.2321    -0.0219 Du      
   8 O8             2.5714    -2.8824    -0.0370 O.3     
   9 O9             0.1148    -3.0002    -0.0146 O.3     
  10 H10           -0.9207    -0.5652     0.0082 H       
  11 H11            1.0542     3.0896     0.0082 H       
  12 H12            3.3694    -0.3595    -0.0324 H       
  13 H13            2.5165    -3.8478    -0.0414 H       
  14 H14            0.2618    -3.9559    -0.0208 H       
@<TRIPOS>BOND
   1    1    2 ar
   2    1    3 ar
   3    2    6 ar
   4    2   10 1
   5    3    4 ar
   6    3   11 1
   7    4    5 ar
   8    5    6 ar
   9    5   12 1
  10    6    7 1
  11    7    8 1
  12    7    9 1
  13    8   13 1
  14    9   14 1

#	End of record

