#	Name: ASD08150190
#	Creating user name:	WinNT
#	Creation time:	15. 06. 2019 21:15

#	Modifying user name:	WinNT
#	Modification time:	15. 06. 2019 21:15

#	Program:	/corina/corina34_cracker 3.40 0067  02.08.2006

@<TRIPOS>MOLECULE
ASD08150190
  53   57    0    0    0
SMALL
NO_CHARGES


@<TRIPOS>ATOM
   1 N1            -0.0157     1.2951    -0.0515 N.2     
   2 C2             0.0018    -0.0026    -0.0874 C.2     
   3 N3             1.1464    -0.7343    -0.1048 N.am    
   4 C4             2.3544    -0.1243    -0.0848 C.2     
   5 C5             2.3698     1.3455    -0.0439 C.ar    
   6 C6             3.5600     2.0697    -0.0212 C.ar    
   7 C7             3.5164     3.4462     0.0164 C.ar    
   8 C8             2.2988     4.1141     0.0322 C.ar    
   9 C9             1.1117     3.4172     0.0107 C.ar    
  10 C10            1.1297     2.0215    -0.0284 C.ar    
  11 O11            3.3878    -0.7674    -0.0995 O.2     
  12 C12            1.0724    -2.1968    -0.1451 C.3     
  13 C13            1.0500    -2.6664    -1.6011 C.3     
  14 C14            0.9739    -4.1709    -1.6426 C.ar    
  15 C15           -0.2566    -4.8004    -1.6627 C.ar    
  16 C16           -0.3265    -6.1805    -1.7007 C.ar    
  17 C17            0.8342    -6.9310    -1.7190 C.ar    
  18 C18            2.0648    -6.3015    -1.6997 C.ar    
  19 C19            2.1346    -4.9213    -1.6661 C.ar    
  20 C20            4.8853     1.3525    -0.0372 C.3     
  21 C21           -1.3151    -0.7349    -0.1106 C.3     
  22 S22           -2.6720     0.4626    -0.0804 S.3     
  23 N23           -5.9128     1.1017    -0.0703 N.2     
  24 C24           -7.2100     1.0022    -0.0764 C.2     
  25 N25           -7.5759    -0.3117    -0.1138 N.pl3   
  26 C26           -6.4252    -1.0585    -0.1316 C.ar    
  27 N27           -6.1529    -2.3593    -0.1674 N.ar    
  28 C28           -4.9000    -2.7852    -0.1765 C.ar    
  29 N29           -3.8684    -1.9516    -0.1499 N.ar    
  30 C30           -4.0498    -0.6352    -0.1138 C.ar    
  31 C31           -5.3650    -0.1378    -0.1033 C.ar    
  32 N32           -4.6574    -4.1485    -0.2136 N.pl3   
  33 H33            4.4369     4.0107     0.0341 H       
  34 H34            2.2830     5.1935     0.0621 H       
  35 H35            0.1710     3.9475     0.0234 H       
  36 H36            1.9416    -2.6187     0.3594 H       
  37 H37            0.1640    -2.5287     0.3577 H       
  38 H38            0.1808    -2.2446    -2.1056 H       
  39 H39            1.9584    -2.3346    -2.1039 H       
  40 H40           -1.1635    -4.2140    -1.6485 H       
  41 H41           -1.2879    -6.6723    -1.7158 H       
  42 H42            0.7797    -8.0093    -1.7479 H       
  43 H43            2.9716    -6.8879    -1.7136 H       
  44 H44            3.0960    -4.4294    -1.6548 H       
  45 H45            5.1525     1.1056    -1.0647 H       
  46 H46            5.6522     1.9967     0.3929 H       
  47 H47            4.8098     0.4365     0.5487 H       
  48 H48           -1.3809    -1.3357    -1.0178 H       
  49 H49           -1.3848    -1.3850     0.7615 H       
  50 H50           -7.8957     1.8363    -0.0550 H       
  51 H51           -8.4832    -0.6548    -0.1257 H       
  52 H52           -5.3995    -4.7729    -0.2326 H       
  53 H53           -3.7454    -4.4788    -0.2208 H       
@<TRIPOS>BOND
   1    1    2 2
   2    1   10 1
   3    2    3 1
   4    2   21 1
   5    3    4 am
   6    3   12 1
   7    4    5 1
   8    4   11 2
   9    5    6 ar
  10    5   10 ar
  11    6    7 ar
  12    6   20 1
  13    7    8 ar
  14    7   33 1
  15    8    9 ar
  16    8   34 1
  17    9   10 ar
  18    9   35 1
  19   12   13 1
  20   12   36 1
  21   12   37 1
  22   13   14 1
  23   13   38 1
  24   13   39 1
  25   14   15 ar
  26   14   19 ar
  27   15   16 ar
  28   15   40 1
  29   16   17 ar
  30   16   41 1
  31   17   18 ar
  32   17   42 1
  33   18   19 ar
  34   18   43 1
  35   19   44 1
  36   20   45 1
  37   20   46 1
  38   20   47 1
  39   21   22 1
  40   21   48 1
  41   21   49 1
  42   22   30 1
  43   23   24 2
  44   23   31 1
  45   24   25 1
  46   24   50 1
  47   25   26 1
  48   25   51 1
  49   26   27 ar
  50   26   31 ar
  51   27   28 ar
  52   28   29 ar
  53   28   32 1
  54   29   30 ar
  55   30   31 ar
  56   32   52 1
  57   32   53 1

#	End of record

