#	Name: ASD01840515
#	Creating user name:	WinNT
#	Creation time:	15. 06. 2019 19:37

#	Modifying user name:	WinNT
#	Modification time:	15. 06. 2019 19:37

#	Program:	/corina/corina34_cracker 3.40 0067  02.08.2006

@<TRIPOS>MOLECULE
ASD01840515
  47   49    0    0    0
SMALL
NO_CHARGES


@<TRIPOS>ATOM
   1 C1            -0.5612    -0.8578     1.0001 C.3     
   2 O2             0.0038    -0.0045     0.0028 O.3     
   3 C3             0.6077    -0.6078    -1.0558 C.ar    
   4 C4             0.6494    -1.9919    -1.1340 C.ar    
   5 C5             1.2627    -2.6047    -2.2093 C.ar    
   6 C6             1.8365    -1.8359    -3.2110 C.ar    
   7 O7             2.4407    -2.4392    -4.2694 O.3     
   8 C8             2.5530    -3.8631    -4.2272 C.3     
   9 C9             1.2654    -4.4941    -4.7642 C.3     
  10 C10            1.4147    -6.0171    -4.7735 C.3     
  11 N11            2.5550    -6.3933    -5.6190 N.3     
  12 C12            3.8097    -5.8379    -5.0960 C.3     
  13 C13            3.7319    -4.3095    -5.0964 C.3     
  14 C14            2.6397    -7.7695    -5.7548 C.ar    
  15 N15            2.8914    -8.5384    -4.6991 N.ar    
  16 C16            2.9724    -9.8476    -4.8238 C.ar    
  17 C17            3.2587   -10.6833    -3.6028 C.3     
  18 O18            2.0274   -11.0519    -2.9783 O.3     
  19 N19            2.8095   -10.4467    -5.9859 N.ar    
  20 C20            2.5555    -9.7481    -7.0850 C.ar    
  21 Cl21           2.3435   -10.5528    -8.6086 Cl      
  22 C22            2.4565    -8.3714    -7.0006 C.ar    
  23 C23            2.1631    -7.5416    -8.2239 C.3     
  24 C24            1.7936    -0.4518    -3.1335 C.ar    
  25 C25            1.1768     0.1611    -2.0601 C.ar    
  26 H26           -1.3258    -1.4890     0.5475 H       
  27 H27            0.2213    -1.4848     1.4276 H       
  28 H28           -1.0099    -0.2504     1.7861 H       
  29 H29            0.2026    -2.5906    -0.3540 H       
  30 H30            1.2959    -3.6825    -2.2699 H       
  31 H31            2.7162    -4.1853    -3.1987 H       
  32 H32            0.4286    -4.2144    -4.1242 H       
  33 H33            1.0824    -4.1402    -5.7788 H       
  34 H34            1.5839    -6.3717    -3.7568 H       
  35 H35            0.5049    -6.4689    -5.1688 H       
  36 H36            3.9677    -6.1932    -4.0778 H       
  37 H37            4.6394    -6.1594    -5.7255 H       
  38 H38            3.5877    -3.9527    -6.1162 H       
  39 H39            4.6573    -3.8979    -4.6936 H       
  40 H40            3.8004   -11.5823    -3.8967 H       
  41 H41            3.8634   -10.1075    -2.9021 H       
  42 H42            2.1357   -11.5923    -2.1838 H       
  43 H43            3.0996    -7.2611    -8.7058 H       
  44 H44            1.5561    -8.1213    -8.9192 H       
  45 H45            1.6213    -6.6421    -7.9314 H       
  46 H46            2.2400     0.1469    -3.9137 H       
  47 H47            1.1404     1.2388    -2.0014 H       
@<TRIPOS>BOND
   1    1    2 1
   2    1   26 1
   3    1   27 1
   4    1   28 1
   5    2    3 1
   6    3   25 ar
   7    3    4 ar
   8    4    5 ar
   9    4   29 1
  10    5    6 ar
  11    5   30 1
  12    6    7 1
  13    6   24 ar
  14    7    8 1
  15    8   13 1
  16    8    9 1
  17    8   31 1
  18    9   10 1
  19    9   32 1
  20    9   33 1
  21   10   11 1
  22   10   34 1
  23   10   35 1
  24   11   12 1
  25   11   14 1
  26   12   13 1
  27   12   36 1
  28   12   37 1
  29   13   38 1
  30   13   39 1
  31   14   22 ar
  32   14   15 ar
  33   15   16 ar
  34   16   17 1
  35   16   19 ar
  36   17   18 1
  37   17   40 1
  38   17   41 1
  39   18   42 1
  40   19   20 ar
  41   20   21 1
  42   20   22 ar
  43   22   23 1
  44   23   43 1
  45   23   44 1
  46   23   45 1
  47   24   25 ar
  48   24   46 1
  49   25   47 1

#	End of record

