#	Name: ASD01882821
#	Creating user name:	WinNT
#	Creation time:	15. 06. 2019 19:45

#	Modifying user name:	WinNT
#	Modification time:	15. 06. 2019 19:45

#	Program:	/corina/corina34_cracker 3.40 0067  02.08.2006

@<TRIPOS>MOLECULE
ASD01882821
  28   30    0    0    0
SMALL
NO_CHARGES


@<TRIPOS>ATOM
   1 C1            -0.0156     1.3012     0.0092 C.2     
   2 N2             0.0021    -0.0041     0.0020 N.2     
   3 C3             1.2734    -0.4310    -0.0124 C.2     
   4 C4             2.0792     0.6481    -0.0143 C.2     
   5 N5             1.2656     1.7511    -0.0006 N.pl3   
   6 C6             1.6788     3.0926     0.0022 C.ar    
   7 C7             0.7344     4.1098     0.0168 C.ar    
   8 C8             1.1413     5.4293     0.0195 C.ar    
   9 C9             2.4937     5.7384     0.0073 C.ar    
  10 C10            3.4379     4.7220    -0.0072 C.ar    
  11 C11            3.0319     3.4022    -0.0038 C.ar    
  12 O12            2.8939     7.0377     0.0091 O.3     
  13 C13            4.3016     7.2829    -0.0040 C.3     
  14 O14            5.2330     9.3494     1.1286 O.3     
  15 C15            4.5565     8.7915     0.0002 C.3     
  16 C16            6.0083     9.2695    -0.0691 C.3     
  17 H17           -0.9010     1.9196     0.0169 H       
  18 H18            1.5953    -1.4619    -0.0205 H       
  19 H19            3.1591     0.6449    -0.0243 H       
  20 H20           -0.3184     3.8693     0.0256 H       
  21 H21            0.4066     6.2209     0.0308 H       
  22 H22            4.4906     4.9631    -0.0171 H       
  23 H23            3.7670     2.6110    -0.0102 H       
  24 H24            4.7567     6.8351     0.8795 H       
  25 H25            4.7388     6.8431    -0.9004 H       
  26 H26            3.7965     9.4010    -0.4886 H       
  27 H27            6.2128    10.1966    -0.6046 H       
  28 H28            6.7906     8.5120    -0.1181 H       
@<TRIPOS>BOND
   1    1    2 2
   2    1    5 1
   3    1   17 1
   4    2    3 1
   5    3    4 2
   6    3   18 1
   7    4    5 1
   8    4   19 1
   9    5    6 1
  10    6    7 ar
  11    6   11 ar
  12    7    8 ar
  13    7   20 1
  14    8    9 ar
  15    8   21 1
  16    9   10 ar
  17    9   12 1
  18   10   11 ar
  19   10   22 1
  20   11   23 1
  21   12   13 1
  22   13   15 1
  23   13   24 1
  24   13   25 1
  25   14   15 1
  26   14   16 1
  27   15   16 1
  28   15   26 1
  29   16   27 1
  30   16   28 1

#	End of record

