#	Name: ASD06660062
#	Creating user name:	WinNT
#	Creation time:	15. 06. 2019 21:07

#	Modifying user name:	WinNT
#	Modification time:	15. 06. 2019 21:07

#	Program:	/corina/corina34_cracker 3.40 0067  02.08.2006

@<TRIPOS>MOLECULE
ASD06660062
  74   77    0    0    0
SMALL
NO_CHARGES


@<TRIPOS>ATOM
   1 C1            -1.3528     1.7069     0.5234 C.2     
   2 C2            -0.9276     0.4375    -0.1687 C.3     
   3 C3            -1.5666     0.3752    -1.5574 C.3     
   4 O4            -0.5224     2.5130     0.8704 O.2     
   5 O5            -2.6544     1.9446     0.7493 O.3     
   6 C6            -1.2485    -0.9515    -2.1977 C.ar    
   7 C7            -2.0457    -2.0513    -1.9389 C.ar    
   8 C8            -1.7568    -3.2685    -2.5241 C.ar    
   9 C9            -0.6646    -3.3871    -3.3735 C.ar    
  10 C10            0.1338    -2.2805    -3.6318 C.ar    
  11 C11           -0.1633    -1.0650    -3.0472 C.ar    
  12 N12           -0.3689    -4.6189    -3.9676 N.am    
  13 C13           -1.1335    -5.7187    -3.8541 C.2     
  14 C14           -0.5189    -6.8621    -4.6309 C.3     
  15 C15            0.5049    -6.1780    -5.5663 C.3     
  16 C16            0.8126    -4.8746    -4.7999 C.3     
  17 C17            1.7624    -7.0356    -5.7223 C.3     
  18 N18            1.4253    -8.2718    -6.4325 N.pl3   
  19 C19            2.4126    -9.2148    -6.6933 C.ar    
  20 C20            3.7191    -8.9784    -6.2772 C.ar    
  21 C21            4.6914    -9.9251    -6.5433 C.ar    
  22 C22            4.3235   -11.0812    -7.2193 C.ar    
  23 C23            3.0086   -11.2505    -7.6030 C.ar    
  24 N24            2.1005   -10.3324    -7.3308 N.ar    
  25 O25           -2.1658    -5.7847    -3.2208 O.2     
  26 C26            1.3017     0.1485     0.7713 C.2     
  27 C27            2.7690     0.0239     0.6162 C.ar    
  28 C28            3.3495    -1.2363     0.4630 C.ar    
  29 C29            4.7144    -1.3537     0.3190 C.ar    
  30 C30            5.5184    -0.2097     0.3260 C.ar    
  31 C31            4.9358     1.0517     0.4790 C.ar    
  32 C32            3.5697     1.1668     0.6176 C.ar    
  33 O33            0.7922     0.0073     1.8655 O.2     
  34 N34            0.5312     0.4185    -0.3010 N.am    
  35 C35            2.9406     2.5269     0.7764 C.3     
  36 C36            2.4826    -2.4690     0.4556 C.3     
  37 C37            1.9461    -2.7067    -0.9574 C.3     
  38 C38            6.9791    -0.3339     0.1725 C.2     
  39 O39            7.4838    -1.4281     0.0402 O.2     
  40 C40            7.8451     0.8995     0.1801 C.3     
  41 H41           -1.2504    -0.4221     0.4187 H       
  42 H42           -2.6472     0.4844    -1.4655 H       
  43 H43           -1.1713     1.1811    -2.1758 H       
  44 H44           -2.8784     2.7722     1.1963 H       
  45 H45           -2.8949    -1.9584    -1.2782 H       
  46 H46           -2.3794    -4.1273    -2.3210 H       
  47 H47            0.9839    -2.3695    -4.2919 H       
  48 H48            0.4548    -0.2031    -3.2508 H       
  49 H49           -0.0158    -7.5547    -3.9562 H       
  50 H50           -1.2805    -7.3807    -5.2132 H       
  51 H51            0.0608    -5.9593    -6.5373 H       
  52 H52            0.9669    -4.0523    -5.4985 H       
  53 H53            1.6940    -5.0081    -4.1727 H       
  54 H54            2.5109    -6.4830    -6.2901 H       
  55 H55            2.1604    -7.2794    -4.7373 H       
  56 H56            0.5131    -8.4323    -6.7207 H       
  57 H57            3.9705    -8.0678    -5.7537 H       
  58 H58            5.7139    -9.7688    -6.2327 H       
  59 H59            5.0590   -11.8398    -7.4428 H       
  60 H60            2.7182   -12.1480    -8.1289 H       
  61 H61            5.1634    -2.3288     0.2012 H       
  62 H62            5.5558     1.9360     0.4848 H       
  63 H63            0.9427     0.6004    -1.1604 H       
  64 H64            2.8903     2.7826     1.8348 H       
  65 H65            3.5422     3.2690     0.2515 H       
  66 H66            1.9343     2.5130     0.3578 H       
  67 H67            3.0726    -3.3300     0.7698 H       
  68 H68            1.6478    -2.3303     1.1426 H       
  69 H69            2.7744    -2.9427    -1.6256 H       
  70 H70            1.2421    -3.5388    -0.9436 H       
  71 H71            1.4397    -1.8081    -1.3098 H       
  72 H72            8.1544     1.1199     1.2017 H       
  73 H73            8.7267     0.7282    -0.4376 H       
  74 H74            7.2804     1.7423    -0.2185 H       
@<TRIPOS>BOND
   1    1    2 1
   2    1    4 2
   3    1    5 1
   4    2    3 1
   5    2   34 1
   6    2   41 1
   7    3    6 1
   8    3   42 1
   9    3   43 1
  10    5   44 1
  11    6    7 ar
  12    6   11 ar
  13    7    8 ar
  14    7   45 1
  15    8    9 ar
  16    8   46 1
  17    9   10 ar
  18    9   12 1
  19   10   11 ar
  20   10   47 1
  21   11   48 1
  22   12   13 am
  23   12   16 1
  24   13   14 1
  25   13   25 2
  26   14   15 1
  27   14   49 1
  28   14   50 1
  29   15   16 1
  30   15   17 1
  31   15   51 1
  32   16   52 1
  33   16   53 1
  34   17   18 1
  35   17   54 1
  36   17   55 1
  37   18   19 1
  38   18   56 1
  39   19   20 ar
  40   19   24 ar
  41   20   21 ar
  42   20   57 1
  43   21   22 ar
  44   21   58 1
  45   22   23 ar
  46   22   59 1
  47   23   24 ar
  48   23   60 1
  49   26   27 1
  50   26   33 2
  51   26   34 am
  52   27   28 ar
  53   27   32 ar
  54   28   29 ar
  55   28   36 1
  56   29   30 ar
  57   29   61 1
  58   30   31 ar
  59   30   38 1
  60   31   32 ar
  61   31   62 1
  62   32   35 1
  63   34   63 1
  64   35   64 1
  65   35   65 1
  66   35   66 1
  67   36   37 1
  68   36   67 1
  69   36   68 1
  70   37   69 1
  71   37   70 1
  72   37   71 1
  73   38   39 2
  74   38   40 1
  75   40   72 1
  76   40   73 1
  77   40   74 1

#	End of record

