#	Name: ASD00431049
#	Creating user name:	WinNT
#	Creation time:	15. 06. 2019 18:35

#	Modifying user name:	WinNT
#	Modification time:	15. 06. 2019 18:35

#	Program:	/corina/corina34_cracker 3.40 0067  02.08.2006

@<TRIPOS>MOLECULE
ASD00431049
  85   89    0    0    0
SMALL
NO_CHARGES


@<TRIPOS>ATOM
   1 C1             0.0974     1.1142     0.0893 C.2     
   2 C2             0.0475    -0.4070     0.0265 C.3     
   3 C3            -1.2487    -0.6403    -0.7763 C.3     
   4 C4            -2.0131     0.6553    -0.5795 C.2     
   5 N5            -1.2206     1.5472     0.0461 N.am    
   6 O6            -3.1567     0.8564    -0.9299 O.2     
   7 C7            -2.2035    -1.2089    -2.9931 C.2     
   8 N8            -2.1694    -1.4491    -4.3188 N.am    
   9 O9            -3.2553    -1.2711    -2.3924 O.2     
  10 C10           -1.6910     2.8145     0.6107 C.3     
  11 C11           -2.1048     2.6030     2.0443 C.ar    
  12 C12           -1.2942     3.0505     3.0708 C.ar    
  13 C13           -3.2985     1.9660     2.3326 C.ar    
  14 C14           -3.6783     1.7718     3.6488 C.ar    
  15 C15           -2.8642     2.2148     4.6754 C.ar    
  16 C16           -1.6731     2.8568     4.3857 C.ar    
  17 Cl17          -4.3199     1.4109     1.0433 Cl      
  18 Cl18          -3.3402     1.9720     6.3272 Cl      
  19 C19            1.1980     1.8259     0.1083 C.2     
  20 C20            2.5539     1.1844     0.0173 C.3     
  21 N21            2.4551    -0.2621    -0.1598 N.am    
  22 C22            1.2671    -0.8650    -0.7806 C.3     
  23 C23            3.4656    -1.0537     0.2509 C.2     
  24 O24            3.3911    -2.2579     0.1071 O.2     
  25 O25            4.5577    -0.5100     0.8205 O.3     
  26 C26            5.6067    -1.4228     1.2386 C.3     
  27 C27           -3.3988    -1.7875    -5.0496 C.3     
  28 C28           -0.9031    -1.3714    -5.0607 C.3     
  29 C29           -1.0755    -0.3849    -6.2224 C.3     
  30 N30           -2.3040    -0.7288    -6.9521 N.am    
  31 C31           -3.5659    -0.8002    -6.2112 C.3     
  32 C32           -2.2700    -0.9681    -8.2780 C.2     
  33 C33           -1.0308    -0.7491    -9.0312 C.2     
  34 C34           -0.8165    -1.0824   -10.3378 C.2     
  35 C35            0.4972    -0.6937   -10.6432 C.2     
  36 C36            1.0206    -0.1471    -9.5237 C.2     
  37 O37            0.0952    -0.1777    -8.5560 O.3     
  38 O38           -3.2676    -1.3660    -8.8503 O.2     
  39 C39           -0.9348    -0.8630    -2.2571 C.3     
  40 C40            6.1199    -2.2003     0.0249 C.3     
  41 C41           -0.0089    -1.0353     1.3951 C.2     
  42 O42           -0.9598    -1.7103     1.7113 O.2     
  43 O43            0.9974    -0.8451     2.2629 O.3     
  44 C44            2.1082    -1.1526     4.4081 C.3     
  45 C45            0.8757    -1.4804     3.5629 C.3     
  46 C46            6.7574    -0.6277     1.8587 C.3     
  47 C47            5.0481    -2.4023     2.2727 C.3     
  48 H48           -1.8076    -1.4828    -0.3691 H       
  49 H49           -0.8884     3.5509     0.5691 H       
  50 H50           -2.5442     3.1741     0.0355 H       
  51 H51           -0.3644     3.5513     2.8451 H       
  52 H52           -4.6102     1.2749     3.8744 H       
  53 H53           -1.0373     3.2028     5.1872 H       
  54 H54            1.1286     2.9005     0.1910 H       
  55 H55            3.0928     1.6104    -0.8290 H       
  56 H56            3.1084     1.3936     0.9321 H       
  57 H57            1.3445    -1.9518    -0.7509 H       
  58 H58            1.1764    -0.5270    -1.8129 H       
  59 H59           -3.3247    -2.8025    -5.4399 H       
  60 H60           -4.2551    -1.7123    -4.3794 H       
  61 H61           -0.1117    -1.0213    -4.3980 H       
  62 H62           -0.6473    -2.3561    -5.4519 H       
  63 H63           -1.1538     0.6298    -5.8321 H       
  64 H64           -0.2194    -0.4565    -6.8932 H       
  65 H65           -4.3587    -1.1509    -6.8720 H       
  66 H66           -3.8190     0.1867    -5.8238 H       
  67 H67           -1.5211    -1.5543   -11.0066 H       
  68 H68            0.9959    -0.8097   -11.5941 H       
  69 H69            2.0194     0.2520    -9.4264 H       
  70 H70           -0.5066     0.0465    -2.6786 H       
  71 H71           -0.2215    -1.6811    -2.3582 H       
  72 H72            6.5179    -1.5025    -0.7119 H       
  73 H73            6.9073    -2.8855     0.3387 H       
  74 H74            5.3001    -2.7667    -0.4169 H       
  75 H75            2.0168    -1.6295     5.3840 H       
  76 H76            3.0021    -1.5218     3.9055 H       
  77 H77            2.1836    -0.0728     4.5370 H       
  78 H78           -0.0183    -1.1112     4.0655 H       
  79 H79            0.8002    -2.5601     3.4340 H       
  80 H80            6.3918    -0.0738     2.7234 H       
  81 H81            7.5448    -1.3129     2.1726 H       
  82 H82            7.1553     0.0701     1.1220 H       
  83 H83            4.2283    -2.9688     1.8309 H       
  84 H84            5.8355    -3.0876     2.5866 H       
  85 H85            4.6825    -1.8485     3.1374 H       
@<TRIPOS>BOND
   1    1    2 1
   2    1   19 2
   3    1    5 1
   4    2    3 1
   5    2   41 1
   6    2   22 1
   7    3    4 1
   8    3   39 1
   9    3   48 1
  10    4    5 am
  11    4    6 2
  12    5   10 1
  13    7    8 am
  14    7    9 2
  15    7   39 1
  16    8   27 1
  17    8   28 1
  18   10   11 1
  19   10   49 1
  20   10   50 1
  21   11   12 ar
  22   11   13 ar
  23   12   16 ar
  24   12   51 1
  25   13   14 ar
  26   13   17 1
  27   14   15 ar
  28   14   52 1
  29   15   16 ar
  30   15   18 1
  31   16   53 1
  32   19   20 1
  33   19   54 1
  34   20   21 1
  35   20   55 1
  36   20   56 1
  37   21   22 1
  38   21   23 am
  39   22   57 1
  40   22   58 1
  41   23   24 2
  42   23   25 1
  43   25   26 1
  44   26   40 1
  45   26   46 1
  46   26   47 1
  47   27   31 1
  48   27   59 1
  49   27   60 1
  50   28   29 1
  51   28   61 1
  52   28   62 1
  53   29   30 1
  54   29   63 1
  55   29   64 1
  56   30   31 1
  57   30   32 am
  58   31   65 1
  59   31   66 1
  60   32   33 1
  61   32   38 2
  62   33   34 2
  63   33   37 1
  64   34   35 1
  65   34   67 1
  66   35   36 2
  67   35   68 1
  68   36   37 1
  69   36   69 1
  70   39   70 1
  71   39   71 1
  72   40   72 1
  73   40   73 1
  74   40   74 1
  75   41   42 2
  76   41   43 1
  77   43   45 1
  78   44   45 1
  79   44   75 1
  80   44   76 1
  81   44   77 1
  82   45   78 1
  83   45   79 1
  84   46   80 1
  85   46   81 1
  86   46   82 1
  87   47   83 1
  88   47   84 1
  89   47   85 1

#	End of record

