#	Name: ASD02690038
#	Creating user name:	WinNT
#	Creation time:	15. 06. 2019 20:26

#	Modifying user name:	WinNT
#	Modification time:	15. 06. 2019 20:26

#	Program:	/corina/corina34_cracker 3.40 0067  02.08.2006

@<TRIPOS>MOLECULE
ASD02690038
  57   60    0    0    0
SMALL
NO_CHARGES


@<TRIPOS>ATOM
   1 C1             0.0035     1.3190    -0.1615 C.2     
   2 O2             0.0338     0.1138    -0.0297 O.2     
   3 C3             1.2568     2.0752    -0.2987 C.ar    
   4 C4             2.4864     1.4073    -0.2776 C.ar    
   5 C5             3.6570     2.1218    -0.4066 C.ar    
   6 C6             3.6188     3.5003    -0.5572 C.ar    
   7 C7             2.4033     4.1684    -0.5789 C.ar    
   8 C8             1.2251     3.4653    -0.4567 C.ar    
   9 F9             4.7705     4.1952    -0.6828 F       
  10 N10           -4.0439     2.2641     0.7386 N.3     
  11 C11           -3.7657     1.8008    -0.6268 C.3     
  12 C12           -2.4162     1.0798    -0.6572 C.3     
  13 C13           -1.3191     2.0408    -0.1909 C.3     
  14 C14           -1.6576     2.5461     1.2143 C.3     
  15 C15           -3.0291     3.2245     1.1905 C.3     
  16 N16           -7.7731     2.3252     0.6828 N.am    
  17 C17           -6.4292     1.7762     0.4566 C.3     
  18 C18           -5.3924     2.8387     0.8351 C.3     
  19 C19           -5.6472     3.3058     2.2701 C.3     
  20 C20           -7.0394     3.9343     2.3642 C.3     
  21 C21           -8.0948     2.8843     2.0029 C.3     
  22 O22           -5.5690     2.1871     3.1558 O.3     
  23 C23           -8.6916     2.3210    -0.3035 C.2     
  24 C24          -10.0769     2.7561    -0.0254 C.ar    
  25 C25          -10.7583     3.5556    -0.9444 C.ar    
  26 C26          -12.0510     3.9578    -0.6790 C.ar    
  27 C27          -12.6719     3.5706     0.4953 C.ar    
  28 C28          -12.0021     2.7781     1.4105 C.ar    
  29 C29          -10.7111     2.3643     1.1546 C.ar    
  30 O30           -8.3810     1.9595    -1.4217 O.2     
  31 H31            2.5175     0.3342    -0.1601 H       
  32 H32            4.6066     1.6077    -0.3902 H       
  33 H33            2.3805     5.2418    -0.6965 H       
  34 H34            0.2793     3.9861    -0.4783 H       
  35 H35           -4.5511     1.1150    -0.9446 H       
  36 H36           -3.7358     2.6562    -1.3016 H       
  37 H37           -2.4499     0.2162     0.0069 H       
  38 H38           -2.2028     0.7497    -1.6739 H       
  39 H39           -1.2581     2.8850    -0.8777 H       
  40 H40           -1.6793     1.7055     1.9079 H       
  41 H41           -0.9022     3.2636     1.5348 H       
  42 H42           -3.0026     4.0733     0.5072 H       
  43 H43           -3.2794     3.5728     2.1926 H       
  44 H44           -6.2873     0.8904     1.0756 H       
  45 H45           -6.3146     1.5121    -0.5947 H       
  46 H46           -5.4760     3.6869     0.1557 H       
  47 H47           -4.8958     4.0439     2.5505 H       
  48 H48           -7.2110     4.2878     3.3809 H       
  49 H49           -7.1078     4.7724     1.6707 H       
  50 H50           -9.0792     3.3513     1.9720 H       
  51 H51           -8.0887     2.0888     2.7480 H       
  52 H52           -5.7205     2.4095     4.0846 H       
  53 H53          -10.2745     3.8591    -1.8610 H       
  54 H54          -12.5794     4.5765    -1.3892 H       
  55 H55          -13.6838     3.8887     0.6986 H       
  56 H56          -12.4924     2.4793     2.3252 H       
  57 H57          -10.1909     1.7420     1.8678 H       
@<TRIPOS>BOND
   1    1    2 2
   2    1    3 1
   3    1   13 1
   4    3    4 ar
   5    3    8 ar
   6    4    5 ar
   7    4   31 1
   8    5    6 ar
   9    5   32 1
  10    6    7 ar
  11    6    9 1
  12    7    8 ar
  13    7   33 1
  14    8   34 1
  15   10   11 1
  16   10   15 1
  17   10   18 1
  18   11   12 1
  19   11   35 1
  20   11   36 1
  21   12   13 1
  22   12   37 1
  23   12   38 1
  24   13   14 1
  25   13   39 1
  26   14   15 1
  27   14   40 1
  28   14   41 1
  29   15   42 1
  30   15   43 1
  31   16   17 1
  32   16   21 1
  33   16   23 am
  34   17   18 1
  35   17   44 1
  36   17   45 1
  37   18   19 1
  38   18   46 1
  39   19   20 1
  40   19   22 1
  41   19   47 1
  42   20   21 1
  43   20   48 1
  44   20   49 1
  45   21   50 1
  46   21   51 1
  47   22   52 1
  48   23   24 1
  49   23   30 2
  50   24   25 ar
  51   24   29 ar
  52   25   26 ar
  53   25   53 1
  54   26   27 ar
  55   26   54 1
  56   27   28 ar
  57   27   55 1
  58   28   29 ar
  59   28   56 1
  60   29   57 1

#	End of record

