#	Name: ASD01884995
#	Creating user name:	WinNT
#	Creation time:	15. 06. 2019 19:49

#	Modifying user name:	WinNT
#	Modification time:	15. 06. 2019 19:49

#	Program:	/corina/corina34_cracker 3.40 0067  02.08.2006

@<TRIPOS>MOLECULE
ASD01884995
  51   55    0    0    0
SMALL
NO_CHARGES


@<TRIPOS>ATOM
   1 C1            -0.0166     1.3744     0.0096 C.ar    
   2 C2             0.0021    -0.0041     0.0020 C.ar    
   3 C3             1.2203    -0.6834    -0.0132 C.ar    
   4 C4             2.4159     0.0351    -0.0208 C.ar    
   5 C5             2.3900     1.4135    -0.0131 C.ar    
   6 C6             1.1755     2.0866     0.0020 C.ar    
   7 C7             1.2443    -2.1647    -0.0209 C.2     
   8 C8             1.7492    -2.8489    -1.1107 C.2     
   9 C9             0.7555    -2.8936     1.0906 C.2     
  10 C10            0.7786    -4.2395     1.0818 C.2     
  11 N11            1.2707    -4.9235     0.0077 N.pl3   
  12 C12            1.7590    -4.2539    -1.0884 C.2     
  13 C13            1.4151    -6.2484    -0.2719 C.2     
  14 N14            1.9506    -6.3442    -1.4613 N.2     
  15 N15            2.1589    -5.1736    -1.9532 N.2     
  16 C16            1.0283    -7.3954     0.6258 C.3     
  17 O17            1.1535     3.4449     0.0100 O.3     
  18 C18           -0.0083    -8.3884     0.0963 C.3     
  19 C19            1.4613    -8.8006     0.2028 C.3     
  20 C20           -0.1300     4.0729     0.0255 C.3     
  21 C21            0.0432     5.5699     0.0325 C.ar    
  22 C22            0.1127     6.2735    -1.1618 C.ar    
  23 C23            0.1289     6.2570     1.2272 C.ar    
  24 N24            0.2802     7.5675     1.2443 N.ar    
  25 C25            0.3560     8.2721     0.1273 C.ar    
  26 C26            0.2722     7.6475    -1.1103 C.ar    
  27 O27            0.5117     9.6183     0.1914 O.3     
  28 C28            0.5854    10.2017     1.4938 C.3     
  29 C29            2.2808    -2.0993    -2.3051 C.3     
  30 F30            3.6664    -1.9496    -2.1829 F       
  31 F31            1.9901    -2.8145    -3.4717 F       
  32 F32            1.6794    -0.8378    -2.3694 F       
  33 H33           -0.9595     1.9010     0.0169 H       
  34 H34           -0.9254    -0.5574     0.0082 H       
  35 H35            3.3608    -0.4878    -0.0322 H       
  36 H36            3.3153     1.9704    -0.0190 H       
  37 H37            0.3632    -2.3677     1.9485 H       
  38 H38            0.4036    -4.7849     1.9352 H       
  39 H39            1.0130    -7.1730     1.6927 H       
  40 H40           -0.7053    -8.8195     0.8150 H       
  41 H41           -0.4105    -8.2121    -0.9013 H       
  42 H42            2.0259    -8.8954    -0.7247 H       
  43 H43            1.7311    -9.5029     0.9915 H       
  44 H44           -0.6905     3.7761    -0.8610 H       
  45 H45           -0.6739     3.7660     0.9189 H       
  46 H46            0.0442     5.7606    -2.1098 H       
  47 H47            0.0709     5.7148     2.1595 H       
  48 H48            0.3345     8.2257    -2.0203 H       
  49 H49            0.7095    11.2807     1.4021 H       
  50 H50           -0.3326     9.9867     2.0407 H       
  51 H51            1.4356     9.7826     2.0320 H       
@<TRIPOS>BOND
   1    1    2 ar
   2    1    6 ar
   3    1   33 1
   4    2    3 ar
   5    2   34 1
   6    3    4 ar
   7    3    7 1
   8    4    5 ar
   9    4   35 1
  10    5    6 ar
  11    5   36 1
  12    6   17 1
  13    7    8 2
  14    7    9 1
  15    8   29 1
  16    8   12 1
  17    9   10 2
  18    9   37 1
  19   10   11 1
  20   10   38 1
  21   11   12 1
  22   11   13 1
  23   12   15 2
  24   13   14 2
  25   13   16 1
  26   14   15 1
  27   16   18 1
  28   16   19 1
  29   16   39 1
  30   17   20 1
  31   18   19 1
  32   18   40 1
  33   18   41 1
  34   19   42 1
  35   19   43 1
  36   20   21 1
  37   20   44 1
  38   20   45 1
  39   21   22 ar
  40   21   23 ar
  41   22   26 ar
  42   22   46 1
  43   23   24 ar
  44   23   47 1
  45   24   25 ar
  46   25   26 ar
  47   25   27 1
  48   26   48 1
  49   27   28 1
  50   28   49 1
  51   28   50 1
  52   28   51 1
  53   29   30 1
  54   29   31 1
  55   29   32 1

#	End of record

