#	Name: ASD04910454
#	Creating user name:	WinNT
#	Creation time:	15. 06. 2019 20:55

#	Modifying user name:	WinNT
#	Modification time:	15. 06. 2019 20:55

#	Program:	/corina/corina34_cracker 3.40 0067  02.08.2006

@<TRIPOS>MOLECULE
ASD04910454
  68   71    0    0    0
SMALL
NO_CHARGES


@<TRIPOS>ATOM
   1 C1             0.7672     1.4216     0.7641 C.2     
   2 C2             0.6847    -0.0795     0.6603 C.3     
   3 C3             2.0925    -0.6581     0.5047 C.3     
   4 O4             1.8417     1.9722     0.7183 O.2     
   5 O5            -0.3535     2.1474     0.9019 O.3     
   6 C6             3.1372    -2.8458     0.2599 C.2     
   7 C7             3.0563    -4.3185     0.1581 C.ar    
   8 C8             4.2193    -5.0757     0.0090 C.ar    
   9 C9             4.1368    -6.4496    -0.0849 C.ar    
  10 C10            2.9048    -7.0770    -0.0321 C.ar    
  11 C11            1.7481    -6.3323     0.1156 C.ar    
  12 C12            1.8171    -4.9581     0.2165 C.ar    
  13 O13            4.2182    -2.2919     0.2138 O.2     
  14 N14            2.0124    -2.1174     0.4038 N.am    
  15 C15            2.8222    -8.5781    -0.1363 C.3     
  16 N16            1.8135    -9.0780     0.8011 N.pl3   
  17 C17            3.4217    -8.9967     2.6058 C.ar    
  18 C18            2.1599    -9.3300     2.1325 C.ar    
  19 C19            1.2429    -9.9183     3.0011 C.ar    
  20 C20            1.6294   -10.1484     4.3098 C.ar    
  21 C21            2.9092    -9.7880     4.7114 C.ar    
  22 N22            3.7545    -9.2311     3.8599 N.ar    
  23 C23            2.5954   -10.6606     6.9936 C.2     
  24 N24            3.2971   -10.6744     8.0939 N.2     
  25 C25            4.4660   -10.0508     7.8837 C.2     
  26 C26            4.4952    -9.6319     6.6045 C.2     
  27 N27            3.3092   -10.0164     6.0335 N.pl3   
  28 C28            5.5577    -9.8528     8.9035 C.3     
  29 F29            5.2189   -10.5210    10.0851 F       
  30 F30            6.7598   -10.3667     8.4055 F       
  31 F31            5.7078    -8.4870     9.1668 F       
  32 C32            2.4313    -8.9696    -1.5628 C.3     
  33 C33            2.2153   -10.4806    -1.7497 C.3     
  34 C34            1.0166   -10.1191    -2.6426 C.3     
  35 C35            0.9322    -8.7982    -1.8597 C.3     
  36 C36            1.3837    -9.9356    -4.1165 C.3     
  37 C37           -0.1956   -11.0303    -2.4398 C.3     
  38 C38           -0.1985     3.5881     0.9957 C.3     
  39 H39            0.2245    -0.4814     1.5630 H       
  40 H40            0.0824    -0.3513    -0.2065 H       
  41 H41            2.5528    -0.2562    -0.3980 H       
  42 H42            2.6949    -0.3864     1.3715 H       
  43 H43            5.1815    -4.5872    -0.0331 H       
  44 H44            5.0359    -7.0368    -0.2003 H       
  45 H45            0.7895    -6.8281     0.1562 H       
  46 H46            0.9138    -4.3782     0.3362 H       
  47 H47            1.1497    -2.5595     0.4406 H       
  48 H48            3.7916    -9.0131     0.1071 H       
  49 H49            0.9053    -9.2343     0.4984 H       
  50 H50            4.1402    -8.5444     1.9382 H       
  51 H51            0.2539   -10.1880     2.6612 H       
  52 H52            0.9441   -10.6024     5.0103 H       
  53 H53            1.6139   -11.0927     6.8663 H       
  54 H54            5.2985    -9.0959     6.1209 H       
  55 H55            3.0808    -8.5248    -2.3168 H       
  56 H56            3.0257   -10.9746    -2.2856 H       
  57 H57            1.9358   -10.9985    -0.8322 H       
  58 H58            0.3019    -8.8561    -0.9723 H       
  59 H59            0.7068    -7.9340    -2.4845 H       
  60 H60            1.8095   -10.8616    -4.5029 H       
  61 H61            0.4888    -9.6823    -4.6850 H       
  62 H62            2.1142    -9.1322    -4.2117 H       
  63 H63           -0.5300   -10.9651    -1.4044 H       
  64 H64           -1.0018   -10.7155    -3.1024 H       
  65 H65            0.0813   -12.0596    -2.6680 H       
  66 H66            0.2829     3.9614     0.0919 H       
  67 H67           -1.1786     4.0527     1.1038 H       
  68 H68            0.4166     3.8317     1.8620 H       
@<TRIPOS>BOND
   1    1    2 1
   2    1    4 2
   3    1    5 1
   4    2    3 1
   5    2   39 1
   6    2   40 1
   7    3   14 1
   8    3   41 1
   9    3   42 1
  10    5   38 1
  11    6    7 1
  12    6   13 2
  13    6   14 am
  14    7    8 ar
  15    7   12 ar
  16    8    9 ar
  17    8   43 1
  18    9   10 ar
  19    9   44 1
  20   10   11 ar
  21   10   15 1
  22   11   12 ar
  23   11   45 1
  24   12   46 1
  25   14   47 1
  26   15   16 1
  27   15   32 1
  28   15   48 1
  29   16   18 1
  30   16   49 1
  31   17   18 ar
  32   17   22 ar
  33   17   50 1
  34   18   19 ar
  35   19   20 ar
  36   19   51 1
  37   20   21 ar
  38   20   52 1
  39   21   22 ar
  40   21   27 1
  41   23   24 2
  42   23   27 1
  43   23   53 1
  44   24   25 1
  45   25   26 2
  46   25   28 1
  47   26   27 1
  48   26   54 1
  49   28   29 1
  50   28   30 1
  51   28   31 1
  52   32   33 1
  53   32   35 1
  54   32   55 1
  55   33   34 1
  56   33   56 1
  57   33   57 1
  58   34   35 1
  59   34   36 1
  60   34   37 1
  61   35   58 1
  62   35   59 1
  63   36   60 1
  64   36   61 1
  65   36   62 1
  66   37   63 1
  67   37   64 1
  68   37   65 1
  69   38   66 1
  70   38   67 1
  71   38   68 1

#	End of record

