#	Name: ASD04880375
#	Creating user name:	WinNT
#	Creation time:	15. 06. 2019 20:53

#	Modifying user name:	WinNT
#	Modification time:	15. 06. 2019 20:53

#	Program:	/corina/corina34_cracker 3.40 0067  02.08.2006

@<TRIPOS>MOLECULE
ASD04880375
  42   45    0    0    0
SMALL
NO_CHARGES


@<TRIPOS>ATOM
   1 C1            -0.0052     1.3604     0.3045 C.ar    
   2 C2             0.0101    -0.0228     0.2706 C.ar    
   3 C3            -1.1744    -0.7279     0.2222 C.ar    
   4 C4            -2.3914    -0.0422     0.2080 C.ar    
   5 C5            -2.3992     1.3543     0.2429 C.ar    
   6 C6            -1.2071     2.0461     0.2960 C.ar    
   7 C7            -3.6620    -0.7890     0.1559 C.2     
   8 N8            -3.7690    -2.0724     0.1208 N.2     
   9 N9            -5.0833    -2.5330     0.0752 N.am    
  10 C10           -5.9932    -1.3766     0.0807 C.3     
  11 C11           -5.0399    -0.1667     0.1419 C.3     
  12 C12           -5.4596    -3.8265     0.0329 C.2     
  13 O13           -6.6381    -4.1194     0.0993 O.2     
  14 C14           -4.4417    -4.8872    -0.0938 C.ar    
  15 C15           -4.8135    -6.2304     0.0068 C.ar    
  16 C16           -3.1044    -4.5513    -0.3205 C.ar    
  17 C17           -2.1547    -5.5472    -0.4391 C.ar    
  18 C18           -2.5319    -6.8866    -0.3327 C.ar    
  19 C19           -3.8618    -7.2193    -0.1121 C.ar    
  20 O20           -0.8081    -5.4902    -0.6572 O.3     
  21 C21           -0.3026    -6.7832    -0.2758 C.3     
  22 O22           -1.4220    -7.6641    -0.4847 O.3     
  23 S23            1.5129     2.2528     0.3663 S.o2    
  24 C24            1.9486     2.5256    -1.3734 C.3     
  25 O25            1.1719     3.4814     0.9935 O.2     
  26 O26            2.4261     1.3490     0.9733 O.2     
  27 H27            0.9517    -0.5516     0.2817 H       
  28 H28           -1.1610    -1.8074     0.1951 H       
  29 H29           -3.3364     1.8908     0.2318 H       
  30 H30           -1.2115     3.1257     0.3234 H       
  31 H31           -6.5899    -1.3536    -0.8312 H       
  32 H32           -6.6363    -1.3986     0.9606 H       
  33 H33           -5.2134     0.4113     1.0496 H       
  34 H34           -5.1613     0.4608    -0.7411 H       
  35 H35           -5.8470    -6.4932     0.1780 H       
  36 H36           -2.8138    -3.5144    -0.4033 H       
  37 H37           -4.1506    -8.2567    -0.0299 H       
  38 H38            0.5344    -7.0701    -0.9124 H       
  39 H39           -0.0052    -6.7841     0.7728 H       
  40 H40            1.1593     3.0985    -1.8601 H       
  41 H41            2.8866     3.0778    -1.4307 H       
  42 H42            2.0617     1.5643    -1.8746 H       
@<TRIPOS>BOND
   1    1    2 ar
   2    1   23 1
   3    1    6 ar
   4    2    3 ar
   5    2   27 1
   6    3    4 ar
   7    3   28 1
   8    4    5 ar
   9    4    7 1
  10    5    6 ar
  11    5   29 1
  12    6   30 1
  13    7    8 2
  14    7   11 1
  15    8    9 1
  16    9   10 1
  17    9   12 am
  18   10   11 1
  19   10   31 1
  20   10   32 1
  21   11   33 1
  22   11   34 1
  23   12   13 2
  24   12   14 1
  25   14   15 ar
  26   14   16 ar
  27   15   19 ar
  28   15   35 1
  29   16   17 ar
  30   16   36 1
  31   17   18 ar
  32   17   20 1
  33   18   19 ar
  34   18   22 1
  35   19   37 1
  36   20   21 1
  37   21   22 1
  38   21   38 1
  39   21   39 1
  40   23   24 1
  41   23   25 2
  42   23   26 2
  43   24   40 1
  44   24   41 1
  45   24   42 1

#	End of record

