#	Name: ASD03430448
#	Creating user name:	WinNT
#	Creation time:	15. 06. 2019 20:41

#	Modifying user name:	WinNT
#	Modification time:	15. 06. 2019 20:41

#	Program:	/corina/corina34_cracker 3.40 0067  02.08.2006

@<TRIPOS>MOLECULE
ASD03430448
  60   65    0    0    0
SMALL
NO_CHARGES


@<TRIPOS>ATOM
   1 N1            -0.1565     1.3156     0.2649 N.am    
   2 C2            -0.2272     0.0012     0.5346 C.2     
   3 C3             0.9989    -0.3529     1.3491 C.3     
   4 C4             1.7424     0.9562     1.4816 C.ar    
   5 C5             2.9231     1.3054     2.1023 C.ar    
   6 C6             3.3659     2.6182     2.0548 C.ar    
   7 C7             2.6207     3.5708     1.3847 C.ar    
   8 C8             1.4391     3.2229     0.7637 C.ar    
   9 C9             0.9866     1.9052     0.8061 C.ar    
  10 O10           -1.1079    -0.7586     0.1907 O.2     
  11 C11            0.6355     4.2703     0.0370 C.3     
  12 O12           -0.4023    -2.4969     6.3709 O.3     
  13 C13            0.5375    -3.5741     6.5223 C.3     
  14 C14            0.8994    -3.9218     5.0589 C.3     
  15 C15            0.6231    -2.6107     4.3482 C.ar    
  16 C16           -0.1453    -1.8359     5.2088 C.ar    
  17 C17           -0.5330    -0.5625     4.8032 C.ar    
  18 C18           -0.1617    -0.0851     3.5577 C.ar    
  19 C19            0.5993    -0.8729     2.7060 C.ar    
  20 C20            0.9891    -2.1376     3.1074 C.ar    
  21 O21           -0.5444     1.1592     3.1678 O.3     
  22 O22            1.7982    -1.3151     0.6583 O.3     
  23 F23            3.6467     0.3702     2.7558 F       
  24 C24           -1.1609     2.0448    -0.5133 C.3     
  25 C25           -0.5549     2.4982    -1.8164 C.ar    
  26 C26           -0.9717     3.6809    -2.3981 C.ar    
  27 C27           -0.4158     4.0968    -3.5934 C.ar    
  28 C28            0.5573     3.3303    -4.2069 C.ar    
  29 C29            0.9748     2.1480    -3.6248 C.ar    
  30 C30            0.4220     1.7343    -2.4272 C.ar    
  31 C31           -2.3337     1.1405    -0.7925 C.ar    
  32 C32           -3.5771     1.4391    -0.2674 C.ar    
  33 C33           -4.6528     0.6096    -0.5235 C.ar    
  34 C34           -4.4853    -0.5183    -1.3049 C.ar    
  35 C35           -3.2421    -0.8164    -1.8307 C.ar    
  36 C36           -2.1673     0.0154    -1.5783 C.ar    
  37 H37            4.2900     2.8961     2.5399 H       
  38 H38            2.9656     4.5935     1.3476 H       
  39 H39            0.8781     4.2422    -1.0253 H       
  40 H40           -0.4276     4.0712     0.1722 H       
  41 H41            0.8746     5.2551     0.4384 H       
  42 H42            1.4198    -3.2425     7.0699 H       
  43 H43            0.0718    -4.4260     7.0178 H       
  44 H44            1.9503    -4.1978     4.9725 H       
  45 H45            0.2570    -4.7150     4.6767 H       
  46 H46           -1.1251     0.0554     5.4620 H       
  47 H47            1.5815    -2.7544     2.4479 H       
  48 H48            0.0832     1.8559     3.4041 H       
  49 H49            1.3478    -2.1546     0.4926 H       
  50 H50           -1.4984     2.9134     0.0522 H       
  51 H51           -1.7320     4.2798    -1.9188 H       
  52 H52           -0.7420     5.0205    -4.0482 H       
  53 H53            0.9911     3.6548    -5.1412 H       
  54 H54            1.7348     1.5489    -4.1042 H       
  55 H55            0.7508     0.8125    -1.9705 H       
  56 H56           -3.7080     2.3203     0.3431 H       
  57 H57           -5.6241     0.8425    -0.1127 H       
  58 H58           -5.3256    -1.1667    -1.5044 H       
  59 H59           -3.1111    -1.6978    -2.4410 H       
  60 H60           -1.1968    -0.2155    -1.9921 H       
@<TRIPOS>BOND
   1    1    2 am
   2    1    9 1
   3    1   24 1
   4    2    3 1
   5    2   10 2
   6    3    4 1
   7    3   19 1
   8    3   22 1
   9    4    5 ar
  10    4    9 ar
  11    5    6 ar
  12    5   23 1
  13    6    7 ar
  14    6   37 1
  15    7    8 ar
  16    7   38 1
  17    8    9 ar
  18    8   11 1
  19   11   39 1
  20   11   40 1
  21   11   41 1
  22   12   13 1
  23   12   16 1
  24   13   14 1
  25   13   42 1
  26   13   43 1
  27   14   15 1
  28   14   44 1
  29   14   45 1
  30   15   16 ar
  31   15   20 ar
  32   16   17 ar
  33   17   18 ar
  34   17   46 1
  35   18   19 ar
  36   18   21 1
  37   19   20 ar
  38   20   47 1
  39   21   48 1
  40   22   49 1
  41   24   25 1
  42   24   31 1
  43   24   50 1
  44   25   26 ar
  45   25   30 ar
  46   26   27 ar
  47   26   51 1
  48   27   28 ar
  49   27   52 1
  50   28   29 ar
  51   28   53 1
  52   29   30 ar
  53   29   54 1
  54   30   55 1
  55   31   32 ar
  56   31   36 ar
  57   32   33 ar
  58   32   56 1
  59   33   34 ar
  60   33   57 1
  61   34   35 ar
  62   34   58 1
  63   35   36 ar
  64   35   59 1
  65   36   60 1

#	End of record

