#	Name: ASD01811693
#	Creating user name:	WinNT
#	Creation time:	15. 06. 2019 19:27

#	Modifying user name:	WinNT
#	Modification time:	15. 06. 2019 19:27

#	Program:	/corina/corina34_cracker 3.40 0067  02.08.2006

@<TRIPOS>MOLECULE
ASD01811693
  55   59    0    0    0
SMALL
NO_CHARGES


@<TRIPOS>ATOM
   1 C1            -0.0167     1.3805     0.0096 C.ar    
   2 C2             0.0021    -0.0041     0.0020 C.ar    
   3 C3             1.2075    -0.6836    -0.0127 C.ar    
   4 C4             2.3988     0.0118    -0.0203 C.ar    
   5 C5             2.3881     1.4079    -0.0132 C.ar    
   6 C6             1.1658     2.0836     0.0021 C.ar    
   7 C7            -1.2939    -0.7731     0.0103 C.3     
   8 C8             1.2188    -2.1905    -0.0199 C.3     
   9 C9             1.0853    -2.6871    -1.4364 C.ar    
  10 C10            2.2168    -2.9050    -2.2008 C.ar    
  11 C11            2.0976    -3.3605    -3.4992 C.ar    
  12 C12            0.8401    -3.5996    -4.0368 C.ar    
  13 C13           -0.2942    -3.3799    -3.2669 C.ar    
  14 C14           -0.1684    -2.9294    -1.9673 C.ar    
  15 N15            0.7158    -4.0616    -5.3545 N.pl3   
  16 N16            1.7700    -4.3243    -6.2389 N.2     
  17 C17            1.2606    -4.7388    -7.3710 C.2     
  18 C18           -0.1328    -4.7536    -7.2450 C.2     
  19 C19           -0.4426    -4.3380    -5.9950 C.2     
  20 C20            3.4708     2.4102    -0.0183 C.2     
  21 N21            2.9565     3.6521    -0.0072 N.am    
  22 C22            1.4923     3.5561     0.0064 C.3     
  23 O23            4.6581     2.1501    -0.0300 O.2     
  24 C24            3.7301     4.8962    -0.0086 C.3     
  25 C25            4.6008     4.9561    -1.2674 C.3     
  26 C26            5.4617     6.2221    -1.2196 C.3     
  27 C27            6.2960     6.2144     0.0640 C.3     
  28 O28            5.4268     6.1263     1.1949 O.3     
  29 C29            4.6312     4.9396     1.2283 C.3     
  30 O30            3.7647     4.9900    -2.4258 O.3     
  31 H31           -0.9590     1.9081     0.0170 H       
  32 H32            3.3374    -0.5224    -0.0314 H       
  33 H33           -1.6162    -0.9530    -1.0154 H       
  34 H34           -1.1473    -1.7267     0.5176 H       
  35 H35           -2.0556    -0.1960     0.5345 H       
  36 H36            2.1570    -2.5488     0.4038 H       
  37 H37            0.3854    -2.5629     0.5758 H       
  38 H38            3.1947    -2.7184    -1.7822 H       
  39 H39            2.9817    -3.5301    -4.0959 H       
  40 H40           -1.2737    -3.5648    -3.6825 H       
  41 H41           -1.0503    -2.7583    -1.3679 H       
  42 H42            1.8196    -5.0205    -8.2511 H       
  43 H43           -0.8367    -5.0485    -8.0092 H       
  44 H44           -1.4367    -4.2393    -5.5846 H       
  45 H45            1.0774     4.0343    -0.8809 H       
  46 H46            1.0945     4.0255     0.9061 H       
  47 H47            3.0509     5.7486     0.0054 H       
  48 H48            5.2455     4.0780    -1.3070 H       
  49 H49            6.1245     6.2448    -2.0846 H       
  50 H50            4.8175     7.1013    -1.2300 H       
  51 H51            6.9689     5.3569     0.0551 H       
  52 H52            6.8788     7.1335     0.1243 H       
  53 H53            4.0148     4.9404     2.1272 H       
  54 H54            5.2824     4.0655     1.2345 H       
  55 H55            4.2509     5.0286    -3.2608 H       
@<TRIPOS>BOND
   1    1    2 ar
   2    1    6 ar
   3    1   31 1
   4    2    3 ar
   5    2    7 1
   6    3    4 ar
   7    3    8 1
   8    4    5 ar
   9    4   32 1
  10    5    6 ar
  11    5   20 1
  12    6   22 1
  13    7   33 1
  14    7   34 1
  15    7   35 1
  16    8    9 1
  17    8   36 1
  18    8   37 1
  19    9   10 ar
  20    9   14 ar
  21   10   11 ar
  22   10   38 1
  23   11   12 ar
  24   11   39 1
  25   12   13 ar
  26   12   15 1
  27   13   14 ar
  28   13   40 1
  29   14   41 1
  30   15   16 1
  31   15   19 1
  32   16   17 2
  33   17   18 1
  34   17   42 1
  35   18   19 2
  36   18   43 1
  37   19   44 1
  38   20   21 am
  39   20   23 2
  40   21   22 1
  41   21   24 1
  42   22   45 1
  43   22   46 1
  44   24   25 1
  45   24   29 1
  46   24   47 1
  47   25   26 1
  48   25   30 1
  49   25   48 1
  50   26   27 1
  51   26   49 1
  52   26   50 1
  53   27   28 1
  54   27   51 1
  55   27   52 1
  56   28   29 1
  57   29   53 1
  58   29   54 1
  59   30   55 1

#	End of record

