#	Name: ASD01915008
#	Creating user name:	WinNT
#	Creation time:	15. 06. 2019 20:04

#	Modifying user name:	WinNT
#	Modification time:	15. 06. 2019 20:04

#	Program:	/corina/corina34_cracker 3.40 0067  02.08.2006

@<TRIPOS>MOLECULE
ASD01915008
  33   35    0    0    0
SMALL
NO_CHARGES


@<TRIPOS>ATOM
   1 N1            -0.0158     1.3157     0.0093 N.ar    
   2 C2             0.0021    -0.0041     0.0020 C.ar    
   3 C3             1.1932    -0.7078    -0.0122 C.ar    
   4 C4             2.3907    -0.0109    -0.0190 C.ar    
   5 C5             2.3358     1.3830    -0.0115 C.ar    
   6 C6             3.5653     2.2019    -0.0170 C.2     
   7 N7             3.4903     3.4982     0.3477 N.am    
   8 C8             2.2308     4.0814     0.8022 C.3     
   9 C9             1.0507     3.5288     0.0069 C.3     
  10 C10            1.0944     2.0227     0.0025 C.ar    
  11 O11            4.6293     1.7144    -0.3452 O.2     
  12 C12           -1.3017    -0.7599     0.0099 C.3     
  13 O13           -1.0381    -2.1643    -0.0001 O.3     
  14 C14           -2.1143    -2.9941     0.0053 C.ar    
  15 C15           -1.9312    -4.3690    -0.0038 C.ar    
  16 C16           -3.0286    -5.2114     0.0022 C.ar    
  17 C17           -4.3084    -4.6816     0.0167 C.ar    
  18 C18           -4.4911    -3.3117     0.0253 C.ar    
  19 C19           -3.3975    -2.4672     0.0256 C.ar    
  20 F20           -2.8521    -6.5508    -0.0066 F       
  21 H21            1.1896    -1.7878    -0.0176 H       
  22 H22            3.3374    -0.5307    -0.0294 H       
  23 H23            4.2857     4.0520     0.3078 H       
  24 H24            2.0901     3.8503     1.8581 H       
  25 H25            2.2717     5.1634     0.6763 H       
  26 H26            0.1187     3.8624     0.4633 H       
  27 H27            1.1016     3.8957    -1.0182 H       
  28 H28           -1.8655    -0.5024     0.9064 H       
  29 H29           -1.8818    -0.4928    -0.8734 H       
  30 H30           -0.9332    -4.7815    -0.0159 H       
  31 H31           -5.1646    -5.3399     0.0210 H       
  32 H32           -5.4899    -2.9008     0.0363 H       
  33 H33           -3.5416    -1.3969     0.0369 H       
@<TRIPOS>BOND
   1    1    2 ar
   2    1   10 ar
   3    2    3 ar
   4    2   12 1
   5    3    4 ar
   6    3   21 1
   7    4    5 ar
   8    4   22 1
   9    5    6 1
  10    5   10 ar
  11    6    7 am
  12    6   11 2
  13    7    8 1
  14    7   23 1
  15    8    9 1
  16    8   24 1
  17    8   25 1
  18    9   10 1
  19    9   26 1
  20    9   27 1
  21   12   13 1
  22   12   28 1
  23   12   29 1
  24   13   14 1
  25   14   15 ar
  26   14   19 ar
  27   15   16 ar
  28   15   30 1
  29   16   17 ar
  30   16   20 1
  31   17   18 ar
  32   17   31 1
  33   18   19 ar
  34   18   32 1
  35   19   33 1

#	End of record

