#	Name: ASD04430071
#	Creating user name:	WinNT
#	Creation time:	15. 06. 2019 20:49

#	Modifying user name:	WinNT
#	Modification time:	15. 06. 2019 20:49

#	Program:	/corina/corina34_cracker 3.40 0067  02.08.2006

@<TRIPOS>MOLECULE
ASD04430071
  43   46    0    0    0
SMALL
NO_CHARGES


@<TRIPOS>ATOM
   1 N1             0.5038     1.7769    -0.5210 N.am    
   2 C2             0.3762     0.4357    -0.3587 C.2     
   3 N3             1.3946    -0.3715    -0.2972 N.2     
   4 C4             2.6573     0.0724    -0.3913 C.2     
   5 C5             2.8892     1.4467    -0.5610 C.2     
   6 C6             1.7311     2.3377    -0.6277 C.2     
   7 N7             3.8792    -0.5265    -0.3611 N.pl3   
   8 N8             4.8576     0.4646    -0.5103 N.2     
   9 C9             4.2831     1.6302    -0.6287 C.2     
  10 O10            1.8661     3.5397    -0.7743 O.2     
  11 C11           -1.0094    -0.1456    -0.2438 C.3     
  12 C12           -0.9132    -1.6624    -0.0682 C.3     
  13 C13            4.1173    -1.8983    -0.2072 C.ar    
  14 C14            3.4175    -2.8241    -0.9687 C.ar    
  15 N15            3.6390    -4.1169    -0.8267 N.ar    
  16 C16            4.5253    -4.5794     0.0351 C.ar    
  17 C17            5.2610    -3.7185     0.8281 C.ar    
  18 C18            5.0639    -2.3528     0.7081 C.ar    
  19 C19            5.8467    -1.3826     1.5549 C.3     
  20 O20            2.9060    -5.0328    -1.6197 O.3     
  21 C21           -2.3123    -2.2547     0.1754 C.3     
  22 C22           -2.5796    -3.2428    -0.9787 C.3     
  23 C23           -1.1667    -3.6403    -1.4734 C.3     
  24 C24           -0.3790    -2.3113    -1.3618 C.3     
  25 H25           -0.2880     2.3355    -0.5648 H       
  26 H26            4.7906     2.5748    -0.7569 H       
  27 H27           -1.5152     0.2886     0.6186 H       
  28 H28           -1.5744     0.0804    -1.1481 H       
  29 H29           -0.2562    -1.9002     0.7684 H       
  30 H30            2.6842    -2.4828    -1.6844 H       
  31 H31            4.6775    -5.6451     0.1222 H       
  32 H32            5.9838    -4.1063     1.5307 H       
  33 H33            6.7160    -1.0334     0.9977 H       
  34 H34            5.2145    -0.5327     1.8121 H       
  35 H35            6.1757    -1.8801     2.4672 H       
  36 H36           -2.3341    -2.7807     1.1298 H       
  37 H37           -3.0599    -1.4615     0.1685 H       
  38 H38           -3.1167    -4.1186    -0.6145 H       
  39 H39           -3.1399    -2.7551    -1.7765 H       
  40 H40           -0.7315    -4.4027    -0.8272 H       
  41 H41           -1.2017    -3.9830    -2.5075 H       
  42 H42           -0.5839    -1.6731    -2.2214 H       
  43 H43            0.6898    -2.5073    -1.2771 H       
@<TRIPOS>BOND
   1    1    2 1
   2    1    6 am
   3    1   25 1
   4    2    3 2
   5    2   11 1
   6    3    4 1
   7    4    5 2
   8    4    7 1
   9    5    6 1
  10    5    9 1
  11    6   10 2
  12    7    8 1
  13    7   13 1
  14    8    9 2
  15    9   26 1
  16   11   12 1
  17   11   27 1
  18   11   28 1
  19   12   21 1
  20   12   24 1
  21   12   29 1
  22   13   14 ar
  23   13   18 ar
  24   14   15 ar
  25   14   30 1
  26   15   16 ar
  27   15   20 1
  28   16   17 ar
  29   16   31 1
  30   17   18 ar
  31   17   32 1
  32   18   19 1
  33   19   33 1
  34   19   34 1
  35   19   35 1
  36   21   22 1
  37   21   36 1
  38   21   37 1
  39   22   23 1
  40   22   38 1
  41   22   39 1
  42   23   24 1
  43   23   40 1
  44   23   41 1
  45   24   42 1
  46   24   43 1

#	End of record

