#	Name: ASD01917740
#	Creating user name:	WinNT
#	Creation time:	15. 06. 2019 20:09

#	Modifying user name:	WinNT
#	Modification time:	15. 06. 2019 20:09

#	Program:	/corina/corina34_cracker 3.40 0067  02.08.2006

@<TRIPOS>MOLECULE
ASD01917740
  49   52    0    0    0
SMALL
NO_CHARGES


@<TRIPOS>ATOM
   1 C1            -0.6862     0.3993     0.1499 C.ar    
   2 C2            -0.7904    -0.9823     0.1205 C.ar    
   3 C3            -2.0335    -1.5886     0.0902 C.ar    
   4 C4            -3.1810    -0.8195     0.0894 C.ar    
   5 C5            -3.0836     0.5764     0.1195 C.ar    
   6 C6            -1.8250     1.1813     0.1548 C.ar    
   7 C7            -4.2686     1.3804     0.1189 C.1     
   8 C8            -5.2400     2.0396     0.1185 C.1     
   9 C9            -6.4250     2.8437     0.1180 C.ar    
  10 C10           -6.3453     4.2424     0.1479 C.ar    
  11 N11           -7.4622     4.9471     0.1458 N.ar    
  12 C12           -8.6442     4.3495     0.1161 C.ar    
  13 N13           -8.7628     3.0303     0.0878 N.ar    
  14 C14           -7.6952     2.2530     0.0817 C.ar    
  15 N15           -9.7929     5.1290     0.1152 N.am    
  16 C16           -9.8209     6.4675     0.1417 C.2     
  17 N17          -11.0557     6.9854     0.1342 N.am    
  18 C18          -12.0400     5.8944     0.0979 C.3     
  19 C19          -11.1694     4.6149     0.0785 C.3     
  20 C20          -12.7866     5.9274    -1.2506 C.3     
  21 C21          -11.9076     5.0719    -2.1958 C.3     
  22 C22          -11.4301     3.9310    -1.2785 C.3     
  23 H23          -12.7140     5.9233     0.9540 H       
  24 H24          -11.3792     3.9630     0.9265 H       
  25 C25          -11.3754     8.4149     0.1589 C.3     
  26 O26           -8.8159     7.1508     0.1707 O.2     
  27 C27          -11.6366     8.8543     1.6009 C.3     
  28 O28          -10.4331     8.7316     2.3616 O.3     
  29 C29          -10.5687     9.1190     3.7304 C.3     
  30 F30            0.5320     0.9826     0.1794 F       
  31 F31           -4.3941    -1.4132     0.0593 F       
  32 H32            0.1033    -1.5887     0.1209 H       
  33 H33           -2.1070    -2.6658     0.0666 H       
  34 H34           -1.7422     2.2579     0.1781 H       
  35 H35           -5.3853     4.7365     0.1725 H       
  36 H36           -7.7996     1.1783     0.0582 H       
  37 H37          -13.7778     5.4856    -1.1483 H       
  38 H38          -12.8604     6.9500    -1.6204 H       
  39 H39          -12.4990     4.6781    -3.0223 H       
  40 H40          -11.0617     5.6511    -2.5661 H       
  41 H41          -10.5099     3.4919    -1.6639 H       
  42 H42          -12.2049     3.1705    -1.1815 H       
  43 H43          -10.5377     8.9816    -0.2476 H       
  44 H44          -12.2649     8.5987    -0.4437 H       
  45 H45          -11.9679     9.8927     1.6100 H       
  46 H46          -12.4093     8.2226     2.0390 H       
  47 H47           -9.6123     8.9969     4.2390 H       
  48 H48          -10.8778    10.1629     3.7837 H       
  49 H49          -11.3192     8.4928     4.2127 H       
@<TRIPOS>BOND
   1    1    2 ar
   2    1   30 1
   3    1    6 ar
   4    2    3 ar
   5    2   32 1
   6    3    4 ar
   7    3   33 1
   8    4    5 ar
   9    4   31 1
  10    5    6 ar
  11    5    7 1
  12    6   34 1
  13    7    8 3
  14    8    9 1
  15    9   10 ar
  16    9   14 ar
  17   10   11 ar
  18   10   35 1
  19   11   12 ar
  20   12   13 ar
  21   12   15 1
  22   13   14 ar
  23   14   36 1
  24   15   16 am
  25   15   19 1
  26   16   17 am
  27   16   26 2
  28   17   18 1
  29   17   25 1
  30   18   19 1
  31   18   20 1
  32   18   23 1
  33   19   24 1
  34   19   22 1
  35   20   21 1
  36   20   37 1
  37   20   38 1
  38   21   22 1
  39   21   39 1
  40   21   40 1
  41   22   41 1
  42   22   42 1
  43   25   27 1
  44   25   43 1
  45   25   44 1
  46   27   28 1
  47   27   45 1
  48   27   46 1
  49   28   29 1
  50   29   47 1
  51   29   48 1
  52   29   49 1

#	End of record

