#	Name: ASD01410235
#	Creating user name:	WinNT
#	Creation time:	15. 06. 2019 19:17

#	Modifying user name:	WinNT
#	Modification time:	15. 06. 2019 19:17

#	Program:	/corina/corina34_cracker 3.40 0067  02.08.2006

@<TRIPOS>MOLECULE
ASD01410235
  46   49    0    0    0
SMALL
NO_CHARGES


@<TRIPOS>ATOM
   1 C1            -0.0163     1.3475     0.0095 C.2     
   2 C2             0.0021    -0.0041     0.0020 C.2     
   3 C3            -1.3321    -0.4376     0.0133 C.2     
   4 C4            -2.1146     0.7003     0.0274 C.2     
   5 O5            -1.2891     1.7679     0.0297 O.3     
   6 C6            -4.1759     1.9388     0.0546 C.2     
   7 S7            -3.4708     3.5687     0.0561 S.3     
   8 C8            -5.0402     4.3930     0.0687 C.2     
   9 N9            -5.9628     3.4599     0.0710 N.2     
  10 C10           -5.6233     2.1888     0.0644 C.2     
  11 C11           -3.5274     0.7396     0.0415 C.2     
  12 O12           -6.4473     1.2871     0.0659 O.2     
  13 N13           -5.2500     5.7478     0.0749 N.pl3   
  14 C14           -6.6159     6.2774     0.0851 C.3     
  15 C15            1.1990     2.2387     0.0026 C.3     
  16 C16            1.5965     2.5480    -1.4421 C.3     
  17 C17           -8.4276     5.9905     1.7882 C.ar    
  18 C18           -7.1203     6.3385     1.5039 C.ar    
  19 C19           -6.2756     6.7420     2.5210 C.ar    
  20 C20           -6.7383     6.7981     3.8224 C.ar    
  21 C21           -8.0459     6.4510     4.1066 C.ar    
  22 C22           -8.8908     6.0483     3.0894 C.ar    
  23 N23           -5.0229     7.6839    -2.4641 N.2     
  24 N24           -5.1054     7.5749    -3.7456 N.pl3   
  25 N25           -6.3413     7.4299    -4.0775 N.2     
  26 N26           -7.0619     7.4449    -3.0077 N.2     
  27 C27           -6.2357     7.6059    -1.9739 C.2     
  28 C28           -6.6225     7.6829    -0.5194 C.3     
  29 H29            0.8800    -0.6329    -0.0108 H       
  30 H30           -1.6791    -1.4603     0.0108 H       
  31 H31           -4.0933    -0.1803     0.0420 H       
  32 H32           -4.4941     6.3556     0.0724 H       
  33 H33           -7.2626     5.6260    -0.5027 H       
  34 H34            0.9707     3.1685     0.5237 H       
  35 H35            2.0231     1.7331     0.5059 H       
  36 H36            0.7724     3.0536    -1.9454 H       
  37 H37            2.4755     3.1926    -1.4470 H       
  38 H38            1.8248     1.6182    -1.9631 H       
  39 H39           -9.0887     5.6791     0.9930 H       
  40 H40           -5.2541     7.0132     2.2989 H       
  41 H41           -6.0782     7.1127     4.6172 H       
  42 H42           -8.4073     6.4944     5.1234 H       
  43 H43           -9.9125     5.7774     3.3114 H       
  44 H44           -4.3565     7.5987    -4.3617 H       
  45 H45           -7.6207     8.1117    -0.4312 H       
  46 H46           -5.9087     8.3110     0.0136 H       
@<TRIPOS>BOND
   1    1    2 2
   2    1   15 1
   3    1    5 1
   4    2    3 1
   5    2   29 1
   6    3    4 2
   7    3   30 1
   8    4    5 1
   9    4   11 1
  10    6    7 1
  11    6   10 1
  12    6   11 2
  13    7    8 1
  14    8    9 2
  15    8   13 1
  16    9   10 1
  17   10   12 2
  18   11   31 1
  19   13   14 1
  20   13   32 1
  21   14   18 1
  22   14   28 1
  23   14   33 1
  24   15   16 1
  25   15   34 1
  26   15   35 1
  27   16   36 1
  28   16   37 1
  29   16   38 1
  30   17   18 ar
  31   17   22 ar
  32   17   39 1
  33   18   19 ar
  34   19   20 ar
  35   19   40 1
  36   20   21 ar
  37   20   41 1
  38   21   22 ar
  39   21   42 1
  40   22   43 1
  41   23   24 1
  42   23   27 2
  43   24   25 1
  44   24   44 1
  45   25   26 2
  46   26   27 1
  47   27   28 1
  48   28   45 1
  49   28   46 1

#	End of record

