#	Name: ASD03091164
#	Creating user name:	WinNT
#	Creation time:	15. 06. 2019 20:30

#	Modifying user name:	WinNT
#	Modification time:	15. 06. 2019 20:30

#	Program:	/corina/corina34_cracker 3.40 0067  02.08.2006

@<TRIPOS>MOLECULE
ASD03091164
  34   36    0    0    0
SMALL
NO_CHARGES


@<TRIPOS>ATOM
   1 N1            -0.0276     1.2795    -0.0098 N.2     
   2 C2             0.0155    -0.0275    -0.0151 C.2     
   3 N3             1.1863    -0.7363    -0.0117 N.am    
   4 C4             2.3766    -0.0922    -0.0024 C.2     
   5 C5             2.3525     1.3780     0.0032 C.ar    
   6 C6             3.5242     2.1317     0.0123 C.ar    
   7 C7             3.4427     3.5122     0.0168 C.ar    
   8 C8             2.2020     4.1464     0.0122 C.ar    
   9 C9             1.0442     3.4226     0.0037 C.ar    
  10 C10            1.0959     2.0254    -0.0009 C.ar    
  11 O11            3.4274    -0.7068     0.0016 O.2     
  12 C12           -1.2601    -0.7743    -0.0248 C.ar    
  13 C13           -1.5194    -1.7315     0.9575 C.ar    
  14 C14           -2.7119    -2.4250     0.9427 C.ar    
  15 C15           -3.6498    -2.1734    -0.0429 C.ar    
  16 C16           -3.3990    -1.2259    -1.0195 C.ar    
  17 C17           -2.2130    -0.5213    -1.0129 C.ar    
  18 O18            4.5807     4.2555     0.0261 O.3     
  19 C19            1.1508    -2.2008    -0.0176 C.3     
  20 C20            1.0008    -2.7016    -1.4555 C.3     
  21 H21            4.4870     1.6425     0.0162 H       
  22 H22            2.1555     5.2254     0.0157 H       
  23 H23            0.0900     3.9285     0.0009 H       
  24 H24           -0.7880    -1.9290     1.7272 H       
  25 H25           -2.9137    -3.1661     1.7019 H       
  26 H26           -4.5816    -2.7194    -0.0502 H       
  27 H27           -4.1353    -1.0343    -1.7861 H       
  28 H28           -2.0204     0.2212    -1.7731 H       
  29 H29            4.9152     4.4737    -0.8546 H       
  30 H30            2.0767    -2.5884     0.4074 H       
  31 H31            0.3054    -2.5462     0.5775 H       
  32 H32            0.0749    -2.3140    -1.8805 H       
  33 H33            1.8462    -2.3562    -2.0506 H       
  34 H34            0.9744    -3.7912    -1.4599 H       
@<TRIPOS>BOND
   1    1    2 2
   2    1   10 1
   3    2    3 1
   4    2   12 1
   5    3    4 am
   6    3   19 1
   7    4    5 1
   8    4   11 2
   9    5    6 ar
  10    5   10 ar
  11    6    7 ar
  12    6   21 1
  13    7    8 ar
  14    7   18 1
  15    8    9 ar
  16    8   22 1
  17    9   10 ar
  18    9   23 1
  19   12   13 ar
  20   12   17 ar
  21   13   14 ar
  22   13   24 1
  23   14   15 ar
  24   14   25 1
  25   15   16 ar
  26   15   26 1
  27   16   17 ar
  28   16   27 1
  29   17   28 1
  30   18   29 1
  31   19   20 1
  32   19   30 1
  33   19   31 1
  34   20   32 1
  35   20   33 1
  36   20   34 1

#	End of record

