#	Name: ASD01412058
#	Creating user name:	WinNT
#	Creation time:	15. 06. 2019 19:20

#	Modifying user name:	WinNT
#	Modification time:	15. 06. 2019 19:20

#	Program:	/corina/corina34_cracker 3.40 0067  02.08.2006

@<TRIPOS>MOLECULE
ASD01412058
  56   59    0    0    0
SMALL
NO_CHARGES


@<TRIPOS>ATOM
   1 C1            -0.0169     1.3939     0.0097 C.ar    
   2 C2             0.0021    -0.0041     0.0020 C.ar    
   3 C3            -1.1788    -0.7226     0.0099 C.ar    
   4 C4            -2.3967    -0.0531     0.0255 C.ar    
   5 C5            -2.4150     1.3537     0.0333 C.ar    
   6 C6            -1.2173     2.0719     0.0306 C.ar    
   7 N7            -3.5879    -0.7471     0.0332 N.pl3   
   8 C8            -4.7825    -0.1074     0.0480 C.2     
   9 C9            -4.8845     1.2374     0.0558 C.2     
  10 C10           -3.7180     2.0380     0.0495 C.2     
  11 O11           -3.7898     3.2563     0.0567 O.2     
  12 C12           -3.5617    -2.2119     0.0245 C.3     
  13 C13           -3.5389    -2.7223     1.4422 C.ar    
  14 C14           -4.7256    -2.9778     2.1038 C.ar    
  15 C15           -4.7053    -3.4459     3.4041 C.ar    
  16 C16           -3.4970    -3.6588     4.0436 C.ar    
  17 C17           -2.3098    -3.4029     3.3810 C.ar    
  18 C18           -2.3313    -2.9401     2.0788 C.ar    
  19 Cl19          -3.4708    -4.2462     5.6770 Cl      
  20 C20           -6.2435     1.8885     0.0713 C.3     
  21 O21           -7.2552     0.8793     0.0752 O.3     
  22 C22           -8.5886     1.3930     0.0898 C.3     
  23 C23           -9.5681     0.2477     0.0927 C.ar    
  24 C24          -10.0065    -0.2835     1.2913 C.ar    
  25 C25          -10.9049    -1.3338     1.2946 C.ar    
  26 C26          -11.3654    -1.8536     0.0980 C.ar    
  27 C27          -10.9263    -1.3215    -1.1013 C.ar    
  28 C28          -10.0323    -0.2675    -1.1032 C.ar    
  29 Cl29         -12.4934    -3.1732     0.1014 Cl      
  30 O30            1.1905    -0.6615    -0.0137 O.3     
  31 C31            1.1418    -2.0897    -0.0209 C.3     
  32 O32            1.1532     2.0876     0.0023 O.3     
  33 C33            1.0620     3.5137     0.0108 C.3     
  34 H34           -1.1550    -1.8023     0.0035 H       
  35 H35           -1.2312     3.1518     0.0365 H       
  36 H36           -5.6873    -0.6970     0.0534 H       
  37 H37           -4.4500    -2.5882    -0.4829 H       
  38 H38           -2.6704    -2.5562    -0.5000 H       
  39 H39           -5.6687    -2.8112     1.6046 H       
  40 H40           -5.6324    -3.6451     3.9209 H       
  41 H41           -1.3663    -3.5689     3.8797 H       
  42 H42           -1.4045    -2.7403     1.5615 H       
  43 H43           -6.3412     2.5043     0.9654 H       
  44 H44           -6.3571     2.5134    -0.8145 H       
  45 H45           -8.7349     1.9985     0.9842 H       
  46 H46           -8.7509     2.0076    -0.7956 H       
  47 H47           -9.6466     0.1221     2.2254 H       
  48 H48          -11.2470    -1.7490     2.2311 H       
  49 H49          -11.2855    -1.7268    -2.0357 H       
  50 H50           -9.6894     0.1480    -2.0393 H       
  51 H51            2.1564    -2.4878    -0.0335 H       
  52 H52            0.6251    -2.4401     0.8726 H       
  53 H53            0.6067    -2.4305    -0.9073 H       
  54 H54            0.5176     3.8482    -0.8723 H       
  55 H55            0.5346     3.8387     0.9076 H       
  56 H56            2.0643     3.9419     0.0035 H       
@<TRIPOS>BOND
   1    1    2 ar
   2    1   32 1
   3    1    6 ar
   4    2    3 ar
   5    2   30 1
   6    3    4 ar
   7    3   34 1
   8    4    5 ar
   9    4    7 1
  10    5    6 ar
  11    5   10 1
  12    6   35 1
  13    7    8 1
  14    7   12 1
  15    8    9 2
  16    8   36 1
  17    9   10 1
  18    9   20 1
  19   10   11 2
  20   12   13 1
  21   12   37 1
  22   12   38 1
  23   13   14 ar
  24   13   18 ar
  25   14   15 ar
  26   14   39 1
  27   15   16 ar
  28   15   40 1
  29   16   17 ar
  30   16   19 1
  31   17   18 ar
  32   17   41 1
  33   18   42 1
  34   20   21 1
  35   20   43 1
  36   20   44 1
  37   21   22 1
  38   22   23 1
  39   22   45 1
  40   22   46 1
  41   23   24 ar
  42   23   28 ar
  43   24   25 ar
  44   24   47 1
  45   25   26 ar
  46   25   48 1
  47   26   27 ar
  48   26   29 1
  49   27   28 ar
  50   27   49 1
  51   28   50 1
  52   30   31 1
  53   31   51 1
  54   31   52 1
  55   31   53 1
  56   32   33 1
  57   33   54 1
  58   33   55 1
  59   33   56 1

#	End of record

