#	Name: ASD02198379
#	Creating user name:	WinNT
#	Creation time:	15. 06. 2019 20:19

#	Modifying user name:	WinNT
#	Modification time:	15. 06. 2019 20:19

#	Program:	/corina/corina34_cracker 3.40 0067  02.08.2006

@<TRIPOS>MOLECULE
ASD02198379
  32   34    0    0    0
SMALL
NO_CHARGES


@<TRIPOS>ATOM
   1 C1             1.3314     4.3753     3.9022 C.2     
   2 C2             0.6145     3.3304     4.3215 C.2     
   3 C3             2.1447     4.1235     2.8103 C.2     
   4 C4             2.0885     2.8756     2.3434 C.2     
   5 S5             0.9579     1.9347     3.3078 S.3     
   6 S6             3.0066     2.2629     0.9699 S.o2    
   7 N7             4.4925     1.8042     1.5391 N.am    
   8 C8             4.5923     0.7859     2.4862 C.ar    
   9 C9             4.1255    -0.5129     2.1866 C.ar    
  10 C10            4.2401    -1.5281     3.1674 C.ar    
  11 C11            4.8116    -1.2302     4.4149 C.ar    
  12 C12            5.2528     0.0316     4.6761 C.ar    
  13 C13            5.1524     1.0376     3.7199 C.ar    
  14 N14            3.5815    -0.7927     0.9993 N.ar    
  15 C15            3.1461    -1.9961     0.7154 C.ar    
  16 C16            3.2279    -3.0404     1.6342 C.ar    
  17 C17            3.7741    -2.8224     2.8667 C.ar    
  18 O18            2.3533     1.0732     0.5492 O.2     
  19 O19            3.2310     3.3720     0.1104 O.2     
  20 Br20          -0.5858     3.3477     5.7826 Br      
  21 C21            5.6511     2.4227     4.0420 C.3     
  22 H22            1.2778     5.3445     4.3757 H       
  23 H23            2.7766     4.8806     2.3699 H       
  24 H24            5.2935     2.2439     1.2135 H       
  25 H25            4.9009    -2.0007     5.1665 H       
  26 H26            5.6910     0.2535     5.6379 H       
  27 H27            2.7124    -2.1829    -0.2559 H       
  28 H28            2.8600    -4.0214     1.3718 H       
  29 H29            3.8458    -3.6203     3.5910 H       
  30 H30            6.7003     2.5062     3.7586 H       
  31 H31            5.0658     3.1573     3.4889 H       
  32 H32            5.5478     2.6065     5.1114 H       
@<TRIPOS>BOND
   1    1    2 2
   2    1    3 1
   3    1   22 1
   4    2   20 1
   5    2    5 1
   6    3    4 2
   7    3   23 1
   8    4    5 1
   9    4    6 1
  10    6    7 am
  11    6   18 2
  12    6   19 2
  13    7    8 1
  14    7   24 1
  15    8    9 ar
  16    8   13 ar
  17    9   10 ar
  18    9   14 ar
  19   10   11 ar
  20   10   17 ar
  21   11   12 ar
  22   11   25 1
  23   12   13 ar
  24   12   26 1
  25   13   21 1
  26   14   15 ar
  27   15   16 ar
  28   15   27 1
  29   16   17 ar
  30   16   28 1
  31   17   29 1
  32   21   30 1
  33   21   31 1
  34   21   32 1

#	End of record

