#	Name: ASD00311183
#	Creating user name:	WinNT
#	Creation time:	15. 06. 2019 18:34

#	Modifying user name:	WinNT
#	Modification time:	15. 06. 2019 18:34

#	Program:	/corina/corina34_cracker 3.40 0067  02.08.2006

@<TRIPOS>MOLECULE
ASD00311183
  43   46    0    0    0
SMALL
NO_CHARGES


@<TRIPOS>ATOM
   1 C1            -0.0180     1.4733     0.0101 C.2     
   2 C2             0.0021    -0.0041     0.0020 C.ar    
   3 C3             1.2178    -0.6865    -0.0133 C.ar    
   4 C4             1.2276    -2.0784    -0.0209 C.ar    
   5 C5             0.0221    -2.7823    -0.0132 C.ar    
   6 C6            -1.1790    -2.1012     0.0019 C.ar    
   7 C7            -1.1968    -0.7207     0.0154 C.ar    
   8 O8             1.0256     2.0949     0.0035 O.2     
   9 O9            -1.1936     2.1309     0.0193 O.3     
  10 C10            4.9351    -4.1711    -0.1070 C.2     
  11 C11            4.1261    -4.3022     1.0057 C.2     
  12 C12            2.8839    -3.6045     1.0412 C.2     
  13 C13            2.5147    -2.8114    -0.0376 C.2     
  14 C14            3.3763    -2.7110    -1.1488 C.2     
  15 N15            4.5421    -3.3755    -1.1638 N.am    
  16 C16            4.7119    -5.1833     2.0143 C.2     
  17 C17            5.8977    -5.6889     1.6802 C.2     
  18 S18            6.3961    -5.1325     0.0949 S.3     
  19 O19            3.0605    -2.0170    -2.1014 O.2     
  20 C20            4.0425    -5.4880     3.3008 C.ar    
  21 C21            4.2742    -4.6831     4.4214 C.ar    
  22 C22            3.6446    -4.9751     5.6194 C.ar    
  23 C23            2.7902    -6.0592     5.7071 C.ar    
  24 C24            2.5593    -6.8574     4.6013 C.ar    
  25 C25            3.1752    -6.5739     3.3984 C.ar    
  26 C26            2.1081    -6.3726     7.0138 C.3     
  27 O27            5.1145    -3.6185     4.3345 O.3     
  28 O28            2.0704    -3.7140     2.1174 O.3     
  29 Cl29           6.8252    -6.7622     2.6810 Cl      
  30 H30            2.1479    -0.1376    -0.0195 H       
  31 H31            0.0289    -3.8622    -0.0194 H       
  32 H32           -2.1087    -2.6509     0.0075 H       
  33 H33           -2.1395    -0.1939     0.0321 H       
  34 H34           -1.1561     3.0971     0.0244 H       
  35 H35            5.1227    -3.2948    -1.9367 H       
  36 H36            3.8211    -4.3559     6.4865 H       
  37 H37            1.8914    -7.7026     4.6778 H       
  38 H38            2.9886    -7.1961     2.5356 H       
  39 H39            1.1540    -5.8476     7.0607 H       
  40 H40            1.9357    -7.4465     7.0853 H       
  41 H41            2.7411    -6.0504     7.8406 H       
  42 H42            4.6794    -2.7938     4.0785 H       
  43 H43            1.2524    -3.2033     2.0457 H       
@<TRIPOS>BOND
   1    1    2 1
   2    1    8 2
   3    1    9 1
   4    2    3 ar
   5    2    7 ar
   6    3    4 ar
   7    3   30 1
   8    4    5 ar
   9    4   13 1
  10    5    6 ar
  11    5   31 1
  12    6    7 ar
  13    6   32 1
  14    7   33 1
  15    9   34 1
  16   10   11 2
  17   10   15 1
  18   10   18 1
  19   11   12 1
  20   11   16 1
  21   12   13 2
  22   12   28 1
  23   13   14 1
  24   14   15 am
  25   14   19 2
  26   15   35 1
  27   16   17 2
  28   16   20 1
  29   17   18 1
  30   17   29 1
  31   20   21 ar
  32   20   25 ar
  33   21   22 ar
  34   21   27 1
  35   22   23 ar
  36   22   36 1
  37   23   24 ar
  38   23   26 1
  39   24   25 ar
  40   24   37 1
  41   25   38 1
  42   26   39 1
  43   26   40 1
  44   26   41 1
  45   27   42 1
  46   28   43 1

#	End of record

