#	Name: ASD00731006
#	Creating user name:	WinNT
#	Creation time:	15. 06. 2019 18:37

#	Modifying user name:	WinNT
#	Modification time:	15. 06. 2019 18:37

#	Program:	/corina/corina34_cracker 3.40 0067  02.08.2006

@<TRIPOS>MOLECULE
ASD00731006
 290  290    0    0    0
SMALL
NO_CHARGES


@<TRIPOS>ATOM
   1 C1            -1.8196    14.1303    -4.8972 C.2     
   2 O2            -1.2485    13.1010    -5.1893 O.2     
   3 N3             0.3541    15.0000    -4.2464 N.3     
   4 C4            -1.0238    15.3733    -4.5927 C.3     
   5 C5            -1.0117    16.2849    -5.8215 C.3     
   6 C6            -0.3112    17.6000    -5.4741 C.3     
   7 C7            -0.2991    18.5115    -6.7028 C.3     
   8 N8             0.3717    19.7707    -6.3702 N.pl3   
   9 C9             0.5036    20.7518    -7.3236 C.2     
  10 N10            0.1312    20.5222    -8.5498 N.2     
  11 N11            1.0315    21.9817    -6.9808 N.am    
  12 C12           -5.3144    13.3483    -5.6303 C.2     
  13 O13           -5.6178    14.5198    -5.7111 O.2     
  14 N14           -3.1661    14.1639    -4.8502 N.am    
  15 C15           -3.9399    12.9571    -5.1521 C.3     
  16 C16           -4.0635    12.1015    -3.8897 C.3     
  17 C17           -2.6784    11.6010    -3.4752 C.3     
  18 C18           -2.7839    10.8506    -2.1461 C.3     
  19 C19           -2.1334    10.6592    -4.5508 C.3     
  20 C20           -8.5077    11.6508    -6.1638 C.2     
  21 O21           -8.1176    10.6312    -5.6354 O.2     
  22 N22           -6.2066    12.3963    -5.9683 N.am    
  23 C23           -7.5428    12.7766    -6.4333 C.3     
  24 C24           -7.4981    13.0612    -7.9359 C.3     
  25 C25           -6.6155    14.2834    -8.1974 C.3     
  26 C26           -6.5708    14.5680    -9.7000 C.3     
  27 N27           -5.7257    15.7383    -9.9504 N.pl3   
  28 C28           -5.5351    16.1861   -11.2362 C.2     
  29 N29           -6.1063    15.5695   -12.2324 N.2     
  30 N30           -4.7421    17.2843   -11.4711 N.pl3   
  31 C31          -11.8965    10.7686    -7.2128 C.2     
  32 O32          -11.9322    11.6567    -8.0381 O.2     
  33 N33           -9.8041    11.7770    -6.5100 N.am    
  34 C34          -10.7421    10.6826    -6.2480 C.3     
  35 C35          -11.2661    10.7921    -4.8147 C.3     
  36 O36          -12.0344    11.9892    -4.6786 O.3     
  37 C37          -15.2439     9.4111    -7.5388 C.2     
  38 O38          -15.2662     9.0757    -6.3735 O.2     
  39 N39          -12.8893     9.8587    -7.1587 N.am    
  40 C40          -13.9542     9.8757    -8.1647 C.3     
  41 C41          -13.5814     8.9417    -9.3178 C.3     
  42 C42          -13.2513     7.5542    -8.7639 C.3     
  43 C43          -14.5220     6.9140    -8.2016 C.3     
  44 C44          -12.3616     9.5008   -10.0530 C.3     
  45 C45          -18.5854     8.4544    -8.6713 C.2     
  46 O46          -18.2239     8.3435    -9.8237 O.2     
  47 N47          -16.3727     9.3683    -8.2741 N.am    
  48 C48          -17.6479     9.0262    -7.6392 C.3     
  49 C49          -18.2676    10.2849    -7.0289 C.3     
  50 C50          -17.3751    10.7947    -5.8956 C.3     
  51 C51          -17.9949    12.0534    -5.2853 C.3     
  52 N52          -17.1403    12.5416    -4.2001 N.pl3   
  53 C53          -17.4965    13.6693    -3.4990 C.2     
  54 N54          -16.7361    14.1037    -2.5335 N.2     
  55 N55          -18.6545    14.3389    -3.8163 N.pl3   
  56 C56          -22.1616     7.7248    -8.8751 C.2     
  57 O57          -22.3929     8.2868    -7.8255 O.2     
  58 N58          -19.8255     8.0662    -8.3137 N.am    
  59 C59          -20.7369     7.5103    -9.3170 C.3     
  60 C60          -20.4714     6.0115    -9.4725 C.3     
  61 O61          -20.7969     5.3411    -8.2533 O.3     
  62 C62          -25.4721     6.5118    -9.7886 C.2     
  63 O63          -25.0737     5.7361   -10.6315 O.2     
  64 N64          -23.1787     7.2923    -9.6464 N.am    
  65 C65          -24.5622     7.5966    -9.2726 C.3     
  66 C66          -24.9718     8.9387    -9.8824 C.3     
  67 C67          -26.3548     9.3347    -9.3615 C.3     
  68 C68          -26.2674     9.6427    -7.8654 C.3     
  69 C69          -26.8456    10.5756   -10.1099 C.3     
  70 C70          -29.0252     5.6732    -9.5992 C.2     
  71 O71          -29.3218     6.7785    -9.1975 O.2     
  72 N72          -26.7286     6.4036    -9.3133 N.am    
  73 C73          -27.5754     5.2830    -9.7299 C.3     
  74 C74          -27.2913     4.0709    -8.8406 C.3     
  75 C75          -25.8540     3.5980    -9.0669 C.3     
  76 C76          -25.5699     2.3858    -8.1776 C.3     
  77 N77          -24.1936     1.9330    -8.3943 N.pl3   
  78 C78          -23.7088     0.8501    -7.6997 C.2     
  79 N79          -24.4736     0.2264    -6.8484 N.2     
  80 N80          -22.4172     0.4252    -7.9031 N.pl3   
  81 C81          -31.7499     4.8672    -8.2572 C.2     
  82 O82          -30.9079     4.4384    -7.4969 O.2     
  83 N83          -29.9920     4.7940    -9.9286 N.am    
  84 C84          -31.3988     5.1320    -9.6987 C.3     
  85 C85          -32.2842     4.2743   -10.6050 C.3     
  86 C86          -32.0028     4.6113   -12.0467 C.2     
  87 O87          -31.1161     5.3904   -12.3254 O.2     
  88 N88          -32.7366     4.0469   -13.0262 N.am    
  89 C89          -34.8091     4.2937    -6.4154 C.2     
  90 O90          -35.4502     4.2479    -7.4439 O.2     
  91 N91          -32.9996     5.1070    -7.8131 N.am    
  92 C92          -33.3718     4.7460    -6.4429 C.3     
  93 C93          -33.2025     5.9628    -5.5310 C.3     
  94 C94          -33.9780     7.1471    -6.1117 C.3     
  95 C95          -35.4796     6.8693    -6.0166 C.3     
  96 C96          -31.7190     6.3238    -5.4323 C.3     
  97 C97          -37.3380     3.8414    -3.8148 C.2     
  98 O98          -36.5997     4.2561    -2.9466 O.2     
  99 N99          -35.3821     3.9401    -5.2479 N.am    
 100 C100         -36.8065     3.6004    -5.2042 C.3     
 101 C101         -36.9908     2.1268    -5.5723 C.3     
 102 C102         -36.2272     1.2527    -4.5754 C.3     
 103 C103         -36.5119    -0.2219    -4.8675 C.3     
 104 C104         -36.4511     1.8821    -6.9829 C.3     
 105 C105         -38.8874     2.6182    -1.3306 C.2     
 106 O106         -38.3258     1.6572    -1.8007 O.2     
 107 N107         -38.6338     3.5961    -3.5371 N.am    
 108 C108         -39.1506     3.8303    -2.1865 C.3     
 109 C109         -40.6570     4.0892    -2.2545 C.3     
 110 C110         -40.9132     5.3695    -3.0070 C.2     
 111 C111         -41.7070     5.5080    -4.0860 C.2     
 112 N112         -41.6554     6.8268    -4.4490 N.pl3   
 113 C113         -40.8313     7.4488    -3.5786 C.2     
 114 N114         -40.3950     6.5720    -2.7161 N.2     
 115 O115         -39.2769     2.6061    -0.0462 O.3     
 116 C116           1.3022    22.2629    -5.6908 C.2     
 117 O117           1.1635    21.4083    -4.8420 O.2     
 118 C118           6.7851    33.7914     8.0286 C.3     
 119 C119           6.3025    32.3937     7.6353 C.3     
 120 C120           6.0697    32.3411     6.1240 C.3     
 121 C121           5.5872    30.9435     5.7307 C.3     
 122 C122           5.3543    30.8908     4.2194 C.3     
 123 C123           4.8718    29.4932     3.8261 C.3     
 124 C124           4.6390    29.4406     2.3149 C.3     
 125 C125           4.1564    28.0430     1.9216 C.3     
 126 C126           3.9236    27.9903     0.4103 C.3     
 127 C127           3.4411    26.5927     0.0170 C.3     
 128 C128           3.2082    26.5401    -1.4943 C.3     
 129 C129           2.7257    25.1424    -1.8876 C.3     
 130 C130           2.4929    25.0898    -3.3988 C.3     
 131 C131           2.0104    23.6922    -3.7921 C.3     
 132 C132           1.7775    23.6395    -5.3034 C.3     
 133 H133           0.3782    14.4507    -3.4004 H       
 134 H134           0.7984    14.5100    -5.0084 H       
 135 H135          -1.4792    15.9000    -3.7541 H       
 136 H136          -0.4776    15.7923    -6.6340 H       
 137 H137          -2.0362    16.4899    -6.1319 H       
 138 H138          -0.8453    18.0925    -4.6615 H       
 139 H139           0.7134    17.3949    -5.1637 H       
 140 H140           0.2350    18.0189    -7.5154 H       
 141 H141          -1.3236    18.7165    -7.0132 H       
 142 H142           0.7227    19.9120    -5.4770 H       
 143 H143           0.1561    21.2361    -9.2060 H       
 144 H144           1.2072    22.6428    -7.6685 H       
 145 H145          -3.6229    14.9871    -4.6166 H       
 146 H146          -3.4334    12.3859    -5.9300 H       
 147 H147          -4.4892    12.7008    -3.0848 H       
 148 H148          -4.7127    11.2493    -4.0905 H       
 149 H149          -2.0046    12.4501    -3.3605 H       
 150 H150          -3.4577    10.0015    -2.2608 H       
 151 H151          -1.7971    10.4940    -1.8507 H       
 152 H152          -3.1722    11.5216    -1.3798 H       
 153 H153          -2.0582    11.1939    -5.4977 H       
 154 H154          -1.1466    10.3027    -4.2555 H       
 155 H155          -2.8072     9.8101    -4.6655 H       
 156 H156          -5.9639    11.4594    -5.9037 H       
 157 H157          -7.8709    13.6709    -5.9036 H       
 158 H158          -7.0860    12.1972    -8.4573 H       
 159 H159          -8.5070    13.2574    -8.2987 H       
 160 H160          -7.0276    15.1474    -7.6760 H       
 161 H161          -5.6065    14.0872    -7.8346 H       
 162 H162          -6.1587    13.7041   -10.2214 H       
 163 H163          -7.5797    14.7642   -10.0628 H       
 164 H164          -5.3007    16.1971    -9.2090 H       
 165 H165          -5.9718    15.8854   -13.1396 H       
 166 H166          -4.3170    17.7431   -10.7297 H       
 167 H167          -4.6076    17.6002   -12.3783 H       
 168 H168         -10.1161    12.5924    -6.9326 H       
 169 H169         -10.2317     9.7280    -6.3763 H       
 170 H170         -11.8941     9.9299    -4.5906 H       
 171 H171         -10.4253    10.8192    -4.1215 H       
 172 H172         -12.3989    12.1242    -3.7931 H       
 173 H173         -12.8988     9.1926    -6.4537 H       
 174 H174         -14.0792    10.8898    -8.5444 H       
 175 H175         -14.4199     8.8665   -10.0101 H       
 176 H176         -12.8527     6.9294    -9.5632 H       
 177 H177         -12.5094     7.6467    -7.9707 H       
 178 H178         -14.3391     5.8582    -8.0018 H       
 179 H179         -14.8024     7.4158    -7.2754 H       
 180 H180         -15.3298     7.0120    -8.9268 H       
 181 H181         -11.5435     9.6396    -9.3462 H       
 182 H182         -12.0547     8.8022   -10.8313 H       
 183 H183         -12.6176    10.4590   -10.5052 H       
 184 H184         -16.3407     9.5640    -9.2236 H       
 185 H185         -17.4770     8.2885    -6.8552 H       
 186 H186         -18.3565    11.0545    -7.7956 H       
 187 H187         -19.2561    10.0488    -6.6348 H       
 188 H188         -17.2863    10.0251    -5.1288 H       
 189 H189         -16.3867    11.0308    -6.2897 H       
 190 H190         -18.0838    12.8231    -6.0520 H       
 191 H191         -18.9833    11.8173    -4.8912 H       
 192 H192         -16.3233    12.0692    -3.9762 H       
 193 H193         -16.9874    14.8993    -2.0388 H       
 194 H194         -19.2203    14.0157    -4.5348 H       
 195 H195         -18.9058    15.1346    -3.3216 H       
 196 H196         -20.1146     8.1548    -7.3920 H       
 197 H197         -20.5737     8.0092   -10.2722 H       
 198 H198         -21.0866     5.6155   -10.2804 H       
 199 H199         -19.4187     5.8513    -9.7053 H       
 200 H200         -20.6528     4.3852    -8.2794 H       
 201 H201         -22.9948     6.7795   -10.4490 H       
 202 H202         -24.6415     7.6515    -8.1869 H       
 203 H203         -24.2458     9.7019    -9.6021 H       
 204 H204         -25.0043     8.8496   -10.9683 H       
 205 H205         -27.0528     8.5132    -9.5232 H       
 206 H206         -25.6264    10.5106    -7.7100 H       
 207 H207         -27.2645     9.8536    -7.4790 H       
 208 H208         -25.8488     8.7835    -7.3414 H       
 209 H209         -26.9079    10.3561   -11.1758 H       
 210 H210         -27.8309    10.8577    -9.7389 H       
 211 H211         -26.1476    11.3971    -9.9483 H       
 212 H212         -27.0723     7.0676    -8.6953 H       
 213 H213         -27.3593     5.0307   -10.7681 H       
 214 H214         -27.4219     4.3489    -7.7948 H       
 215 H215         -27.9824     3.2662    -9.0917 H       
 216 H216         -25.7234     3.3199   -10.1128 H       
 217 H217         -25.1629     4.4027    -8.8159 H       
 218 H218         -25.7005     2.6639    -7.1318 H       
 219 H219         -26.2609     1.5811    -8.4287 H       
 220 H220         -23.6243     2.3972    -9.0279 H       
 221 H221         -24.1316    -0.5377    -6.3583 H       
 222 H222         -21.8479     0.8894    -8.5367 H       
 223 H223         -22.0751    -0.3388    -7.4130 H       
 224 H224         -29.7564     3.9374   -10.3180 H       
 225 H225         -31.5609     6.1860    -9.9244 H       
 226 H226         -32.0700     3.2200   -10.4299 H       
 227 H227         -33.3325     4.4739   -10.3832 H       
 228 H228         -33.4457     3.4238   -12.8033 H       
 229 H229         -32.5555     4.2638   -13.9542 H       
 230 H230         -33.6525     5.5185    -8.4006 H       
 231 H231         -32.7298     3.9376    -6.0930 H       
 232 H232         -33.5864     5.7289    -4.5380 H       
 233 H233         -33.7390     8.0492    -5.5484 H       
 234 H234         -33.6997     7.2866    -7.1563 H       
 235 H235         -36.0325     7.7836    -6.2319 H       
 236 H236         -35.7533     6.1005    -6.7392 H       
 237 H237         -35.7226     6.5260    -5.0111 H       
 238 H238         -31.3209     6.5007    -6.4315 H       
 239 H239         -31.6036     7.2251    -4.8303 H       
 240 H240         -31.1756     5.5026    -4.9649 H       
 241 H241         -34.8513     3.9106    -4.4365 H       
 242 H242         -37.3504     4.2231    -5.9145 H       
 243 H243         -38.0506     1.8740    -5.5398 H       
 244 H244         -35.1581     1.4422    -4.6706 H       
 245 H245         -36.5496     1.4911    -3.5618 H       
 246 H246         -35.9679    -0.8446    -4.1573 H       
 247 H247         -37.5811    -0.4113    -4.7723 H       
 248 H248         -36.1895    -0.4603    -5.8811 H       
 249 H249         -36.9951     2.5048    -7.6931 H       
 250 H250         -35.3913     2.1349    -7.0154 H       
 251 H251         -36.5825     0.8323    -7.2451 H       
 252 H252         -39.2243     3.2644    -4.2316 H       
 253 H253         -38.6523     4.6970    -1.7520 H       
 254 H254         -41.1450     3.2615    -2.7691 H       
 255 H255         -41.0569     4.1754    -1.2442 H       
 256 H256         -42.2749     4.7283    -4.5718 H       
 257 H257         -42.1234     7.2378    -5.1926 H       
 258 H258         -40.5784     8.4986    -3.5917 H       
 259 H259         -39.0861     1.8064     0.4629 H       
 260 H260           6.9509    33.8289     9.1052 H       
 261 H261           7.7174    34.0134     7.5094 H       
 262 H262           6.0306    34.5276     7.7513 H       
 263 H263           7.0570    31.6575     7.9125 H       
 264 H264           5.3702    32.1718     8.1545 H       
 265 H265           5.3152    33.0773     5.8468 H       
 266 H266           7.0020    32.5631     5.6048 H       
 267 H267           6.3416    30.2072     6.0079 H       
 268 H268           4.6548    30.7215     6.2499 H       
 269 H269           4.5999    31.6271     3.9422 H       
 270 H270           6.2867    31.1128     3.7002 H       
 271 H271           5.6263    28.7570     4.1034 H       
 272 H272           3.9395    29.2712     4.3454 H       
 273 H273           3.8845    30.1768     2.0376 H       
 274 H274           5.5713    29.6626     1.7957 H       
 275 H275           4.9109    27.3067     2.1988 H       
 276 H276           3.2241    27.8210     2.4408 H       
 277 H277           3.1691    28.7266     0.1331 H       
 278 H278           4.8559    28.2123    -0.1089 H       
 279 H279           4.1955    25.8565     0.2942 H       
 280 H280           2.5087    26.3707     0.5362 H       
 281 H281           2.4538    27.2763    -1.7715 H       
 282 H282           4.1406    26.7620    -2.0135 H       
 283 H283           3.4802    24.4062    -1.6103 H       
 284 H284           1.7934    24.9204    -1.3684 H       
 285 H285           1.7384    25.8260    -3.6761 H       
 286 H286           3.4252    25.3118    -3.9180 H       
 287 H287           2.7648    22.9559    -3.5149 H       
 288 H288           1.0780    23.4702    -3.2729 H       
 289 H289           2.7098    23.8615    -5.8226 H       
 290 H290           1.0231    24.3758    -5.5806 H       
@<TRIPOS>BOND
   1    1    2 2
   2    1    4 1
   3    1   14 am
   4    3    4 1
   5    3  133 1
   6    3  134 1
   7    4    5 1
   8    4  135 1
   9    5    6 1
  10    5  136 1
  11    5  137 1
  12    6    7 1
  13    6  138 1
  14    6  139 1
  15    7    8 1
  16    7  140 1
  17    7  141 1
  18    8    9 1
  19    8  142 1
  20    9   10 2
  21    9   11 1
  22   10  143 1
  23   11  116 am
  24   11  144 1
  25   12   13 2
  26   12   15 1
  27   12   22 am
  28   14   15 1
  29   14  145 1
  30   15   16 1
  31   15  146 1
  32   16   17 1
  33   16  147 1
  34   16  148 1
  35   17   18 1
  36   17   19 1
  37   17  149 1
  38   18  150 1
  39   18  151 1
  40   18  152 1
  41   19  153 1
  42   19  154 1
  43   19  155 1
  44   20   21 2
  45   20   23 1
  46   20   33 am
  47   22   23 1
  48   22  156 1
  49   23   24 1
  50   23  157 1
  51   24   25 1
  52   24  158 1
  53   24  159 1
  54   25   26 1
  55   25  160 1
  56   25  161 1
  57   26   27 1
  58   26  162 1
  59   26  163 1
  60   27   28 1
  61   27  164 1
  62   28   29 2
  63   28   30 1
  64   29  165 1
  65   30  166 1
  66   30  167 1
  67   31   32 2
  68   31   34 1
  69   31   39 am
  70   33   34 1
  71   33  168 1
  72   34   35 1
  73   34  169 1
  74   35   36 1
  75   35  170 1
  76   35  171 1
  77   36  172 1
  78   37   38 2
  79   37   40 1
  80   37   47 am
  81   39   40 1
  82   39  173 1
  83   40   41 1
  84   40  174 1
  85   41   42 1
  86   41   44 1
  87   41  175 1
  88   42   43 1
  89   42  176 1
  90   42  177 1
  91   43  178 1
  92   43  179 1
  93   43  180 1
  94   44  181 1
  95   44  182 1
  96   44  183 1
  97   45   46 2
  98   45   48 1
  99   45   58 am
 100   47   48 1
 101   47  184 1
 102   48   49 1
 103   48  185 1
 104   49   50 1
 105   49  186 1
 106   49  187 1
 107   50   51 1
 108   50  188 1
 109   50  189 1
 110   51   52 1
 111   51  190 1
 112   51  191 1
 113   52   53 1
 114   52  192 1
 115   53   54 2
 116   53   55 1
 117   54  193 1
 118   55  194 1
 119   55  195 1
 120   56   57 2
 121   56   59 1
 122   56   64 am
 123   58   59 1
 124   58  196 1
 125   59   60 1
 126   59  197 1
 127   60   61 1
 128   60  198 1
 129   60  199 1
 130   61  200 1
 131   62   63 2
 132   62   65 1
 133   62   72 am
 134   64   65 1
 135   64  201 1
 136   65   66 1
 137   65  202 1
 138   66   67 1
 139   66  203 1
 140   66  204 1
 141   67   68 1
 142   67   69 1
 143   67  205 1
 144   68  206 1
 145   68  207 1
 146   68  208 1
 147   69  209 1
 148   69  210 1
 149   69  211 1
 150   70   71 2
 151   70   73 1
 152   70   83 am
 153   72   73 1
 154   72  212 1
 155   73   74 1
 156   73  213 1
 157   74   75 1
 158   74  214 1
 159   74  215 1
 160   75   76 1
 161   75  216 1
 162   75  217 1
 163   76   77 1
 164   76  218 1
 165   76  219 1
 166   77   78 1
 167   77  220 1
 168   78   79 2
 169   78   80 1
 170   79  221 1
 171   80  222 1
 172   80  223 1
 173   81   82 2
 174   81   84 1
 175   81   91 am
 176   83   84 1
 177   83  224 1
 178   84   85 1
 179   84  225 1
 180   85   86 1
 181   85  226 1
 182   85  227 1
 183   86   87 2
 184   86   88 am
 185   88  228 1
 186   88  229 1
 187   89   90 2
 188   89   92 1
 189   89   99 am
 190   91   92 1
 191   91  230 1
 192   92   93 1
 193   92  231 1
 194   93   94 1
 195   93   96 1
 196   93  232 1
 197   94   95 1
 198   94  233 1
 199   94  234 1
 200   95  235 1
 201   95  236 1
 202   95  237 1
 203   96  238 1
 204   96  239 1
 205   96  240 1
 206   97   98 2
 207   97  100 1
 208   97  107 am
 209   99  100 1
 210   99  241 1
 211  100  101 1
 212  100  242 1
 213  101  102 1
 214  101  104 1
 215  101  243 1
 216  102  103 1
 217  102  244 1
 218  102  245 1
 219  103  246 1
 220  103  247 1
 221  103  248 1
 222  104  249 1
 223  104  250 1
 224  104  251 1
 225  105  106 2
 226  105  108 1
 227  105  115 1
 228  107  108 1
 229  107  252 1
 230  108  109 1
 231  108  253 1
 232  109  110 1
 233  109  254 1
 234  109  255 1
 235  110  111 2
 236  110  114 1
 237  111  112 1
 238  111  256 1
 239  112  113 1
 240  112  257 1
 241  113  114 2
 242  113  258 1
 243  115  259 1
 244  116  117 2
 245  116  132 1
 246  118  119 1
 247  118  260 1
 248  118  261 1
 249  118  262 1
 250  119  120 1
 251  119  263 1
 252  119  264 1
 253  120  121 1
 254  120  265 1
 255  120  266 1
 256  121  122 1
 257  121  267 1
 258  121  268 1
 259  122  123 1
 260  122  269 1
 261  122  270 1
 262  123  124 1
 263  123  271 1
 264  123  272 1
 265  124  125 1
 266  124  273 1
 267  124  274 1
 268  125  126 1
 269  125  275 1
 270  125  276 1
 271  126  127 1
 272  126  277 1
 273  126  278 1
 274  127  128 1
 275  127  279 1
 276  127  280 1
 277  128  129 1
 278  128  281 1
 279  128  282 1
 280  129  130 1
 281  129  283 1
 282  129  284 1
 283  130  131 1
 284  130  285 1
 285  130  286 1
 286  131  132 1
 287  131  287 1
 288  131  288 1
 289  132  289 1
 290  132  290 1

#	End of record

