#	Name: ASD01917330
#	Creating user name:	WinNT
#	Creation time:	15. 06. 2019 20:09

#	Modifying user name:	WinNT
#	Modification time:	15. 06. 2019 20:09

#	Program:	/corina/corina34_cracker 3.40 0067  02.08.2006

@<TRIPOS>MOLECULE
ASD01917330
  49   52    0    0    0
SMALL
NO_CHARGES


@<TRIPOS>ATOM
   1 C1            -0.0168     1.3896     0.0097 C.ar    
   2 C2             0.0021    -0.0041     0.0020 C.ar    
   3 C3             1.2210    -0.6608    -0.0132 C.ar    
   4 C4             2.3830     0.1001    -0.0202 C.ar    
   5 C5             2.2882     1.4856    -0.0119 C.ar    
   6 N6             1.1163     2.0811     0.0026 N.ar    
   7 C7            -1.3128     2.1054     0.0197 C.2     
   8 O8            -2.3535     1.4779     0.0212 O.2     
   9 N9            -1.3383     3.4529     0.0271 N.am    
  10 F10            3.5927    -0.5013    -0.0346 F       
  11 C11           -2.6206     4.1612     0.0371 C.3     
  12 C12           -3.4936     3.8179    -1.1827 C.3     
  13 C13           -4.8898     4.4093    -0.9790 C.3     
  14 C14           -4.7981     5.9158    -0.7283 C.3     
  15 C15           -3.8691     6.1688     0.4719 C.3     
  16 C16           -4.2626     5.1662     1.5813 C.3     
  17 C17           -3.4562     3.8621     1.3031 C.3     
  18 C18           -2.4520     5.7036     0.0442 C.3     
  19 C19           -5.0718     8.1014     1.3411 C.2     
  20 C20           -5.1115     9.5055     1.8024 C.ar    
  21 C21           -6.3149    10.0690     2.2298 C.ar    
  22 C22           -6.3449    11.3808     2.6592 C.ar    
  23 C23           -5.1843    12.1365     2.6660 C.ar    
  24 C24           -3.9892    11.5830     2.2436 C.ar    
  25 C25           -3.9449    10.2712     1.8178 C.ar    
  26 O26           -6.0885     7.4352     1.3334 O.2     
  27 N27           -3.9084     7.5601     0.9291 N.am    
  28 Cl28          -7.8401    12.0843     3.1913 Cl      
  29 H29           -0.9214    -0.5641     0.0082 H       
  30 H30            1.2671    -1.7398    -0.0191 H       
  31 H31            3.1888     2.0815    -0.0170 H       
  32 H32           -0.5076     3.9537     0.0259 H       
  33 H33           -3.0460     4.2409    -2.0821 H       
  34 H34           -3.5675     2.7353    -1.2851 H       
  35 H35           -5.4918     4.2278    -1.8693 H       
  36 H36           -5.3633     3.9293    -0.1225 H       
  37 H37           -4.3940     6.4086    -1.6126 H       
  38 H38           -5.7906     6.3103    -0.5108 H       
  39 H39           -3.9981     5.5674     2.5597 H       
  40 H40           -5.3318     4.9594     1.5372 H       
  41 H41           -4.1373     3.0322     1.1151 H       
  42 H42           -2.7980     3.6253     2.1391 H       
  43 H43           -1.6936     6.0105     0.7644 H       
  44 H44           -2.2152     6.0755    -0.9527 H       
  45 H45           -7.2204     9.4805     2.2241 H       
  46 H46           -5.2127    13.1624     3.0021 H       
  47 H47           -3.0877    12.1777     2.2509 H       
  48 H48           -3.0100     9.8393     1.4926 H       
  49 H49           -3.0970     8.0917     0.9352 H       
@<TRIPOS>BOND
   1    1    2 ar
   2    1    6 ar
   3    1    7 1
   4    2    3 ar
   5    2   29 1
   6    3    4 ar
   7    3   30 1
   8    4    5 ar
   9    4   10 1
  10    5    6 ar
  11    5   31 1
  12    7    8 2
  13    7    9 am
  14    9   11 1
  15    9   32 1
  16   11   12 1
  17   11   17 1
  18   11   18 1
  19   12   13 1
  20   12   33 1
  21   12   34 1
  22   13   14 1
  23   13   35 1
  24   13   36 1
  25   14   15 1
  26   14   37 1
  27   14   38 1
  28   15   16 1
  29   15   18 1
  30   15   27 1
  31   16   17 1
  32   16   39 1
  33   16   40 1
  34   17   41 1
  35   17   42 1
  36   18   43 1
  37   18   44 1
  38   19   20 1
  39   19   26 2
  40   19   27 am
  41   20   21 ar
  42   20   25 ar
  43   21   22 ar
  44   21   45 1
  45   22   23 ar
  46   22   28 1
  47   23   24 ar
  48   23   46 1
  49   24   25 ar
  50   24   47 1
  51   25   48 1
  52   27   49 1

#	End of record

