#	Name: ASD01860008
#	Creating user name:	WinNT
#	Creation time:	15. 06. 2019 19:38

#	Modifying user name:	WinNT
#	Modification time:	15. 06. 2019 19:38

#	Program:	/corina/corina34_cracker 3.40 0067  02.08.2006

@<TRIPOS>MOLECULE
ASD01860008
  13   12    0    0    0
SMALL
NO_CHARGES


@<TRIPOS>ATOM
   1 C1            -0.0178     1.4628     0.0101 C.2     
   2 C2             0.0021    -0.0041     0.0020 C.2     
   3 C3             1.1649    -0.6545    -0.0126 C.2     
   4 C4             1.1854    -2.1614    -0.0209 C.3     
   5 C5             1.9959    -2.6463    -1.1951 C.2     
   6 O6             1.0335     2.0890     0.0034 O.co2   
   7 O7            -1.0858     2.0602     0.0184 O.co2   
   8 O8             2.5094    -1.8428    -1.9549 O.co2   
   9 O9             2.1382    -3.8422    -1.3854 O.co2   
  10 H10           -0.9258    -0.5567     0.0079 H       
  11 H11            2.0928    -0.1019    -0.0185 H       
  12 H12            1.6334    -2.5238     0.9043 H       
  13 H13            0.1658    -2.5381    -0.1027 H       
@<TRIPOS>BOND
   1    1    2 1
   2    1    6 ar
   3    1    7 ar
   4    2    3 2
   5    2   10 1
   6    3    4 1
   7    3   11 1
   8    4    5 1
   9    4   12 1
  10    4   13 1
  11    5    8 ar
  12    5    9 ar

#	End of record

