#	Name: ASD03092346
#	Creating user name:	WinNT
#	Creation time:	15. 06. 2019 20:32

#	Modifying user name:	WinNT
#	Modification time:	15. 06. 2019 20:32

#	Program:	/corina/corina34_cracker 3.40 0067  02.08.2006

@<TRIPOS>MOLECULE
ASD03092346
  64   67    0    0    0
SMALL
NO_CHARGES


@<TRIPOS>ATOM
   1 N1            -0.6103     1.7081     0.7097 N.3     
   2 C2            -0.4574     0.2335     0.6130 C.3     
   3 C3             0.6475    -0.1108     1.6348 C.3     
   4 C4             1.4613     1.1894     1.7986 C.3     
   5 C5             0.7796     2.2099     0.8620 C.3     
   6 C6            -1.7468    -0.4539     0.9816 C.2     
   7 O7            -2.5950     0.1442     1.6091 O.2     
   8 N8            -1.9575    -1.7333     0.6139 N.am    
   9 C9            -1.2369     2.2529    -0.5021 C.3     
  10 C10           -3.2110    -2.4015     0.9721 C.3     
  11 S11           -3.5086    -5.8928    -0.9566 S.3     
  12 C12           -2.6899    -5.9838     0.5412 C.2     
  13 N13           -2.6382    -4.8113     1.0985 N.2     
  14 C14           -3.1953    -3.8139     0.4467 C.2     
  15 C15           -3.7517    -4.1624    -0.7323 C.2     
  16 C16           -6.2992    -2.7109    -3.0792 C.ar    
  17 C17           -5.6905    -3.5893    -2.2092 C.ar    
  18 C18           -4.4417    -3.2540    -1.6688 C.ar    
  19 C19           -3.8667    -2.0319    -2.0423 C.ar    
  20 C20           -4.5464    -1.2145    -2.9192 C.ar    
  21 N21           -5.7218    -1.5690    -3.4045 N.ar    
  22 C22           -3.9397     0.1026    -3.3294 C.3     
  23 C23           -7.6393    -3.0615    -3.6726 C.3     
  24 N24           -2.1588    -7.1403     1.0826 N.3     
  25 C25           -2.3900    -8.2909     0.1973 C.3     
  26 C26           -1.8405    -9.5567     0.8605 C.3     
  27 O27           -0.4536    -9.3706     1.1556 O.3     
  28 C28           -0.1921    -8.2587     2.0161 C.3     
  29 C29           -0.7249    -6.9798     1.3646 C.3     
  30 C30            1.3159    -8.1286     2.2389 C.3     
  31 C31           -2.0059   -10.7443    -0.0898 C.3     
  32 H32           -0.1475    -0.0514    -0.3924 H       
  33 H33            0.2048    -0.4028     2.5871 H       
  34 H34            1.2826    -0.9091     1.2510 H       
  35 H35            1.4180     1.5356     2.8313 H       
  36 H36            2.4959     1.0293     1.4952 H       
  37 H37            1.2831     2.2343    -0.1044 H       
  38 H38            0.7784     3.2009     1.3161 H       
  39 H39           -1.2791    -2.2116     0.1120 H       
  40 H40           -2.2229     1.8071    -0.6332 H       
  41 H41           -1.3369     3.3339    -0.4048 H       
  42 H42           -0.6158     2.0219    -1.3676 H       
  43 H43           -3.3165    -2.4185     2.0569 H       
  44 H44           -4.0495    -1.8601     0.5340 H       
  45 H45           -6.1688    -4.5215    -1.9472 H       
  46 H46           -2.9058    -1.7351    -1.6487 H       
  47 H47           -3.3273    -0.0410    -4.2195 H       
  48 H48           -4.7341     0.8167    -3.5463 H       
  49 H49           -3.3189     0.4848    -2.5190 H       
  50 H50           -8.4324    -2.6883    -3.0247 H       
  51 H51           -7.7307    -2.6054    -4.6584 H       
  52 H52           -7.7241    -4.1444    -3.7639 H       
  53 H53           -3.4596    -8.4066     0.0226 H       
  54 H54           -1.8809    -8.1274    -0.7525 H       
  55 H55           -2.3863    -9.7500     1.7840 H       
  56 H56           -0.6900    -8.4142     2.9732 H       
  57 H57           -0.1892    -6.7953     0.4334 H       
  58 H58           -0.5791    -6.1383     2.0420 H       
  59 H59            1.8124    -7.9712     1.2814 H       
  60 H60            1.5145    -7.2810     2.8949 H       
  61 H61            1.6952    -9.0409     2.6993 H       
  62 H62           -1.4581   -10.5507    -1.0120 H       
  63 H63           -1.6145   -11.6452     0.3829 H       
  64 H64           -3.0628   -10.8832    -0.3173 H       
@<TRIPOS>BOND
   1    1    2 1
   2    1    5 1
   3    1    9 1
   4    2    3 1
   5    2    6 1
   6    2   32 1
   7    3    4 1
   8    3   33 1
   9    3   34 1
  10    4    5 1
  11    4   35 1
  12    4   36 1
  13    5   37 1
  14    5   38 1
  15    6    7 2
  16    6    8 am
  17    8   10 1
  18    8   39 1
  19    9   40 1
  20    9   41 1
  21    9   42 1
  22   10   14 1
  23   10   43 1
  24   10   44 1
  25   11   12 1
  26   11   15 1
  27   12   13 2
  28   12   24 1
  29   13   14 1
  30   14   15 2
  31   15   18 1
  32   16   17 ar
  33   16   21 ar
  34   16   23 1
  35   17   18 ar
  36   17   45 1
  37   18   19 ar
  38   19   20 ar
  39   19   46 1
  40   20   21 ar
  41   20   22 1
  42   22   47 1
  43   22   48 1
  44   22   49 1
  45   23   50 1
  46   23   51 1
  47   23   52 1
  48   24   25 1
  49   24   29 1
  50   25   26 1
  51   25   53 1
  52   25   54 1
  53   26   27 1
  54   26   31 1
  55   26   55 1
  56   27   28 1
  57   28   29 1
  58   28   30 1
  59   28   56 1
  60   29   57 1
  61   29   58 1
  62   30   59 1
  63   30   60 1
  64   30   61 1
  65   31   62 1
  66   31   63 1
  67   31   64 1

#	End of record

