#	Name: ASD00990105
#	Creating user name:	WinNT
#	Creation time:	15. 06. 2019 18:54

#	Modifying user name:	WinNT
#	Modification time:	15. 06. 2019 18:54

#	Program:	/corina/corina34_cracker 3.40 0067  02.08.2006

@<TRIPOS>MOLECULE
ASD00990105
  47   50    0    0    0
SMALL
NO_CHARGES


@<TRIPOS>ATOM
   1 C1            -0.0167     1.3768     0.0096 C.ar    
   2 C2             0.0021    -0.0041     0.0020 C.ar    
   3 C3             1.2128    -0.6802    -0.0132 C.ar    
   4 C4             2.4064     0.0392    -0.0207 C.ar    
   5 C5             2.3811     1.4270    -0.0123 C.ar    
   6 C6             1.1684     2.0919     0.0021 C.ar    
   7 N7             3.4385    -0.9004    -0.0363 N.am    
   8 C8             4.8745    -0.6104    -0.0483 C.3     
   9 C9             5.3804    -0.5196     1.3683 C.2     
  10 N10            6.6816    -0.2588     1.6038 N.am    
  11 C11            7.1735    -0.1706     2.9809 C.3     
  12 O12            4.6168    -0.6813     2.2966 O.2     
  13 C13            7.6041    -0.0636     0.4825 C.3     
  14 C14            7.6233    -1.5331     3.4419 C.2     
  15 N15            8.9032    -1.9908     3.3878 N.pl3   
  16 C16            8.9030    -3.2725     3.9008 C.ar    
  17 C17            7.5720    -3.5472     4.2574 C.ar    
  18 N18            6.8451    -2.4409     3.9547 N.2     
  19 C19            9.8848    -4.2328     4.1039 C.ar    
  20 C20            9.5456    -5.4502     4.6547 C.ar    
  21 C21            8.2307    -5.7212     5.0063 C.ar    
  22 C22            7.2515    -4.7883     4.8138 C.ar    
  23 O23            1.5358    -1.9967    -0.0240 O.3     
  24 C24            2.8720    -2.1234    -0.0379 C.2     
  25 O25            3.4775    -3.1779    -0.0504 O.2     
  26 F26            3.5372     2.1260    -0.0192 F       
  27 C27            1.1373     3.5986     0.0108 C.3     
  28 F28           -0.1910     4.0375     0.0250 F       
  29 F29            1.7971     4.0722     1.1499 F       
  30 F30            1.7768     4.0848    -1.1345 F       
  31 C31            7.8796    -7.0581     5.6066 C.3     
  32 F32            9.0341    -7.8419     5.7071 F       
  33 F33            7.3326    -6.8682     6.8802 F       
  34 F34            6.9461    -7.7053     4.7899 F       
  35 H35           -0.9607     1.9013     0.0169 H       
  36 H36           -0.9256    -0.5571     0.0082 H       
  37 H37            5.4018    -1.4076    -0.5721 H       
  38 H38            5.0496     0.3371    -0.5580 H       
  39 H39            8.0134     0.5228     3.0230 H       
  40 H40            6.3742     0.1870     3.6300 H       
  41 H41            7.6295     0.9922     0.2126 H       
  42 H42            8.6031    -0.3884     0.7732 H       
  43 H43            7.2659    -0.6492    -0.3724 H       
  44 H44            9.6732    -1.5065     3.0510 H       
  45 H45           10.9094    -4.0273     3.8314 H       
  46 H46           10.3082    -6.1983     4.8133 H       
  47 H47            6.2315    -5.0096     5.0913 H       
@<TRIPOS>BOND
   1    1    2 ar
   2    1    6 ar
   3    1   35 1
   4    2    3 ar
   5    2   36 1
   6    3    4 ar
   7    3   23 1
   8    4    5 ar
   9    4    7 1
  10    5    6 ar
  11    5   26 1
  12    6   27 1
  13    7    8 1
  14    7   24 am
  15    8    9 1
  16    8   37 1
  17    8   38 1
  18    9   10 am
  19    9   12 2
  20   10   11 1
  21   10   13 1
  22   11   14 1
  23   11   39 1
  24   11   40 1
  25   13   41 1
  26   13   42 1
  27   13   43 1
  28   14   15 1
  29   14   18 2
  30   15   16 1
  31   15   44 1
  32   16   17 ar
  33   16   19 ar
  34   17   18 1
  35   17   22 ar
  36   19   20 ar
  37   19   45 1
  38   20   21 ar
  39   20   46 1
  40   21   22 ar
  41   21   31 1
  42   22   47 1
  43   23   24 1
  44   24   25 2
  45   27   28 1
  46   27   29 1
  47   27   30 1
  48   31   32 1
  49   31   33 1
  50   31   34 1

#	End of record

