#	Name: ASD07990003
#	Creating user name:	WinNT
#	Creation time:	15. 06. 2019 21:14

#	Modifying user name:	WinNT
#	Modification time:	15. 06. 2019 21:14

#	Program:	/corina/corina34_cracker 3.40 0067  02.08.2006

@<TRIPOS>MOLECULE
ASD07990003
  37   39    0    0    0
SMALL
NO_CHARGES


@<TRIPOS>ATOM
   1 C1            -0.0178     1.4648     0.0101 C.3     
   2 N2             0.0021    -0.0041     0.0020 N.3     
   3 C3             0.7149    -0.5340     1.1948 C.3     
   4 C4             2.2119    -0.3454     0.8576 C.3     
   5 C5             2.2716    -0.3361    -0.6841 C.3     
   6 C6             0.8053    -0.5199    -1.1383 C.3     
   7 C7             0.5311    -2.0287    -1.2430 C.3     
   8 C8             1.0445    -2.7150     0.0260 C.3     
   9 C9             0.4342    -2.0438     1.2597 C.3     
  10 O10            0.6678    -4.1171     0.0030 O.3     
  11 C11            1.4876    -4.9811     0.6325 C.2     
  12 O12            2.4897    -4.5743     1.1856 O.2     
  13 C13            1.1678    -6.4232     0.6503 C.ar    
  14 C14            2.0153    -7.3215     1.3019 C.ar    
  15 C15            1.7108    -8.6668     1.3145 C.ar    
  16 C16            0.5685    -9.1268     0.6835 C.ar    
  17 C17           -0.2757    -8.2421     0.0359 C.ar    
  18 C18            0.0138    -6.8935     0.0204 C.ar    
  19 H19            1.0047     1.8421     0.0024 H       
  20 H20           -0.5450     1.8259    -0.8730 H       
  21 H21           -0.5280     1.8163     0.9069 H       
  22 H22            0.4299    -0.0149     2.1100 H       
  23 H23            2.5742     0.6019     1.2570 H       
  24 H24            2.7976    -1.1743     1.2550 H       
  25 H25            2.6634     0.6157    -1.0428 H       
  26 H26            2.8867    -1.1606    -1.0448 H       
  27 H27            0.5918     0.0103    -2.0665 H       
  28 H28           -0.5409    -2.1990    -1.3419 H       
  29 H29            1.0487    -2.4344    -2.1123 H       
  30 H30            2.1306    -2.6329     0.0686 H       
  31 H31            0.8832    -2.4602     2.1615 H       
  32 H32           -0.6422    -2.2148     1.2734 H       
  33 H33            2.9074    -6.9638     1.7945 H       
  34 H34            2.3656    -9.3627     1.8178 H       
  35 H35            0.3350   -10.1811     0.6961 H       
  36 H36           -1.1655    -8.6079    -0.4549 H       
  37 H37           -0.6459    -6.2041    -0.4853 H       
@<TRIPOS>BOND
   1    1    2 1
   2    1   19 1
   3    1   20 1
   4    1   21 1
   5    2    3 1
   6    2    6 1
   7    3    4 1
   8    3    9 1
   9    3   22 1
  10    4    5 1
  11    4   23 1
  12    4   24 1
  13    5    6 1
  14    5   25 1
  15    5   26 1
  16    6    7 1
  17    6   27 1
  18    7    8 1
  19    7   28 1
  20    7   29 1
  21    8    9 1
  22    8   10 1
  23    8   30 1
  24    9   31 1
  25    9   32 1
  26   10   11 1
  27   11   12 2
  28   11   13 1
  29   13   14 ar
  30   13   18 ar
  31   14   15 ar
  32   14   33 1
  33   15   16 ar
  34   15   34 1
  35   16   17 ar
  36   16   35 1
  37   17   18 ar
  38   17   36 1
  39   18   37 1

#	End of record

