#	Name: ASD01150249
#	Creating user name:	WinNT
#	Creation time:	15. 06. 2019 19:03

#	Modifying user name:	WinNT
#	Modification time:	15. 06. 2019 19:03

#	Program:	/corina/corina34_cracker 3.40 0067  02.08.2006

@<TRIPOS>MOLECULE
ASD01150249
  73   77    0    0    0
SMALL
NO_CHARGES


@<TRIPOS>ATOM
   1 C1             0.2455     0.9711     0.3450 C.ar    
   2 C2             0.1510    -0.4214     0.4458 C.ar    
   3 C3            -1.0589    -1.0415     0.4555 C.ar    
   4 C4            -2.2390    -0.2821     0.3634 C.ar    
   5 C5            -2.1484     1.1275     0.2612 C.ar    
   6 C6            -0.8926     1.7457     0.2588 C.ar    
   7 N7            -3.4379    -0.8750     0.3708 N.ar    
   8 C8            -4.5504    -0.1859     0.2856 C.ar    
   9 C9            -4.5500     1.2000     0.1821 C.ar    
  10 C10           -3.3432     1.8867     0.1687 C.ar    
  11 N11            1.5013     1.5816     0.3374 N.3     
  12 C12           -3.3045     3.3628     0.0595 C.ar    
  13 C13           -5.8517     1.9533     0.0858 C.3     
  14 C14           -5.8675    -0.9182     0.2998 C.3     
  15 C15           -2.8110     4.1300     1.1151 C.ar    
  16 C16           -2.7767     5.5046     1.0083 C.ar    
  17 C17           -3.2318     6.1240    -0.1449 C.ar    
  18 C18           -3.7230     5.3663    -1.1963 C.ar    
  19 C19           -3.7562     3.9908    -1.1015 C.ar    
  20 F20           -3.1970     7.4709    -0.2444 F       
  21 C21            2.5734     0.5822     0.4441 C.3     
  22 C22            3.9311     1.2826     0.3523 C.3     
  23 N23            4.0376     2.2815     1.4249 N.3     
  24 C24            2.9655     3.2809     1.3182 C.3     
  25 C25            1.6078     2.5805     1.4100 C.3     
  26 C26           -6.4292     1.7958    -1.3222 C.3     
  27 C27            5.3587     2.9238     1.4169 C.3     
  28 O28           -6.7765     1.4300     1.0413 O.3     
  29 C29           -7.7624     2.2634     1.4661 C.ar    
  30 C30           -8.6194     1.8649     2.4814 C.ar    
  31 C31           -9.6210     2.7139     2.9115 C.ar    
  32 C32           -9.7693     3.9598     2.3309 C.ar    
  33 C33           -8.9164     4.3592     1.3183 C.ar    
  34 C34           -7.9098     3.5166     0.8890 C.ar    
  35 C35           -8.4586     0.5067     3.1144 C.3     
  36 C36           -8.1858     0.6706     4.6109 C.3     
  37 C37           -9.7410    -0.3037     2.9155 C.3     
  38 H38            1.0524    -1.0121     0.5166 H       
  39 H39           -1.1137    -2.1173     0.5335 H       
  40 H40           -0.8151     2.8201     0.1812 H       
  41 H41           -5.6763     3.0094     0.2906 H       
  42 H42           -6.1795    -1.0846     1.3308 H       
  43 H43           -6.6202    -0.3220    -0.2159 H       
  44 H44           -5.7552    -1.8776    -0.2052 H       
  45 H45           -2.4568     3.6483     2.0145 H       
  46 H46           -2.3948     6.0994     1.8249 H       
  47 H47           -4.0769     5.8536    -2.0928 H       
  48 H48           -4.1388     3.4011    -1.9215 H       
  49 H49            2.4948     0.0653     1.4005 H       
  50 H50            2.4806    -0.1389    -0.3681 H       
  51 H51            4.7280     0.5468     0.4602 H       
  52 H52            4.0207     1.7768    -0.6151 H       
  53 H53            3.0584     4.0020     2.1304 H       
  54 H54            3.0441     3.7979     0.3618 H       
  55 H55            0.8109     3.3163     1.3021 H       
  56 H56            1.5182     2.0863     2.3774 H       
  57 H57           -6.5151     0.7362    -1.5632 H       
  58 H58           -7.4149     2.2591    -1.3645 H       
  59 H59           -5.7690     2.2797    -2.0419 H       
  60 H60            5.5153     3.4209     0.4596 H       
  61 H61            5.4105     3.6584     2.2205 H       
  62 H62            6.1308     2.1686     1.5647 H       
  63 H63          -10.2888     2.4040     3.7016 H       
  64 H64          -10.5528     4.6220     2.6685 H       
  65 H65           -9.0346     5.3329     0.8660 H       
  66 H66           -7.2437     3.8292     0.0984 H       
  67 H67           -7.6231    -0.0150     2.6477 H       
  68 H68           -9.0214     1.1924     5.0775 H       
  69 H69           -8.0695    -0.3117     5.0687 H       
  70 H70           -7.2722     1.2480     4.7526 H       
  71 H71           -9.9354    -0.4205     1.8493 H       
  72 H72           -9.6247    -1.2860     3.3733 H       
  73 H73          -10.5766     0.2180     3.3821 H       
@<TRIPOS>BOND
   1    1    2 ar
   2    1   11 1
   3    1    6 ar
   4    2    3 ar
   5    2   38 1
   6    3    4 ar
   7    3   39 1
   8    4    5 ar
   9    4    7 ar
  10    5    6 ar
  11    5   10 ar
  12    6   40 1
  13    7    8 ar
  14    8    9 ar
  15    8   14 1
  16    9   10 ar
  17    9   13 1
  18   10   12 1
  19   11   21 1
  20   11   25 1
  21   12   15 ar
  22   12   19 ar
  23   13   26 1
  24   13   28 1
  25   13   41 1
  26   14   42 1
  27   14   43 1
  28   14   44 1
  29   15   16 ar
  30   15   45 1
  31   16   17 ar
  32   16   46 1
  33   17   18 ar
  34   17   20 1
  35   18   19 ar
  36   18   47 1
  37   19   48 1
  38   21   22 1
  39   21   49 1
  40   21   50 1
  41   22   23 1
  42   22   51 1
  43   22   52 1
  44   23   24 1
  45   23   27 1
  46   24   25 1
  47   24   53 1
  48   24   54 1
  49   25   55 1
  50   25   56 1
  51   26   57 1
  52   26   58 1
  53   26   59 1
  54   27   60 1
  55   27   61 1
  56   27   62 1
  57   28   29 1
  58   29   30 ar
  59   29   34 ar
  60   30   31 ar
  61   30   35 1
  62   31   32 ar
  63   31   63 1
  64   32   33 ar
  65   32   64 1
  66   33   34 ar
  67   33   65 1
  68   34   66 1
  69   35   36 1
  70   35   37 1
  71   35   67 1
  72   36   68 1
  73   36   69 1
  74   36   70 1
  75   37   71 1
  76   37   72 1
  77   37   73 1

#	End of record

