#	Name: ASD04590078
#	Creating user name:	WinNT
#	Creation time:	15. 06. 2019 20:50

#	Modifying user name:	WinNT
#	Modification time:	15. 06. 2019 20:50

#	Program:	/corina/corina34_cracker 3.40 0067  02.08.2006

@<TRIPOS>MOLECULE
ASD04590078
  34   36    0    0    0
SMALL
NO_CHARGES


@<TRIPOS>ATOM
   1 N1            -0.1049     1.2560    -0.0508 N.pl3   
   2 N2            -0.0355    -0.0261    -0.0171 N.2     
   3 C3             1.2029    -0.4227    -0.2408 C.2     
   4 C4             1.9854     0.7452    -0.4343 C.2     
   5 C5             1.1196     1.7857    -0.3060 C.2     
   6 C6             1.6832    -1.8162    -0.2813 C.2     
   7 O7             2.8570    -2.0487    -0.4983 O.2     
   8 N8             0.8214    -2.8322    -0.0778 N.am    
   9 C9             1.2565    -4.1559    -0.2096 C.ar    
  10 C10            2.5408    -4.5082     0.1840 C.ar    
  11 C11            2.9679    -5.8151     0.0535 C.ar    
  12 C12            2.1167    -6.7738    -0.4699 C.ar    
  13 C13            0.8356    -6.4246    -0.8630 C.ar    
  14 C14            0.4025    -5.1201    -0.7289 C.ar    
  15 F15            2.5368    -8.0514    -0.5975 F       
  16 N16            3.3609     0.8120    -0.7011 N.pl3   
  17 C17            3.9554     2.0364    -0.9840 C.ar    
  18 C18            5.2957     2.0829    -1.3552 C.ar    
  19 C19            5.8743     3.3077    -1.6338 C.ar    
  20 C20            5.0904     4.4497    -1.5316 C.ar    
  21 C21            3.7670     4.3303    -1.1579 C.ar    
  22 N22            3.2397     3.1477    -0.9031 N.ar    
  23 H23           -0.9157     1.7715     0.0825 H       
  24 H24            1.3600     2.8351    -0.3911 H       
  25 H25           -0.1004    -2.6460     0.1600 H       
  26 H26            3.2052    -3.7607     0.5915 H       
  27 H27            3.9666    -6.0895     0.3595 H       
  28 H28            0.1734    -7.1738    -1.2713 H       
  29 H29           -0.5982    -4.8491    -1.0315 H       
  30 H30            3.8973     0.0039    -0.6882 H       
  31 H31            5.8763     1.1749    -1.4245 H       
  32 H32            6.9124     3.3748    -1.9240 H       
  33 H33            5.5122     5.4214    -1.7421 H       
  34 H34            3.1540     5.2158    -1.0769 H       
@<TRIPOS>BOND
   1    1    2 1
   2    1    5 1
   3    1   23 1
   4    2    3 2
   5    3    4 1
   6    3    6 1
   7    4    5 2
   8    4   16 1
   9    5   24 1
  10    6    7 2
  11    6    8 am
  12    8    9 1
  13    8   25 1
  14    9   10 ar
  15    9   14 ar
  16   10   11 ar
  17   10   26 1
  18   11   12 ar
  19   11   27 1
  20   12   13 ar
  21   12   15 1
  22   13   14 ar
  23   13   28 1
  24   14   29 1
  25   16   17 1
  26   16   30 1
  27   17   18 ar
  28   17   22 ar
  29   18   19 ar
  30   18   31 1
  31   19   20 ar
  32   19   32 1
  33   20   21 ar
  34   20   33 1
  35   21   22 ar
  36   21   34 1

#	End of record

