#	Name: ASD01816112
#	Creating user name:	WinNT
#	Creation time:	15. 06. 2019 19:34

#	Modifying user name:	WinNT
#	Modification time:	15. 06. 2019 19:34

#	Program:	/corina/corina34_cracker 3.40 0067  02.08.2006

@<TRIPOS>MOLECULE
ASD01816112
  60   65    0    0    0
SMALL
NO_CHARGES


@<TRIPOS>ATOM
   1 C1            -0.3043     2.1425    -0.9076 C.ar    
   2 C2            -0.1719     0.7811    -0.6874 C.ar    
   3 C3             1.0761     0.1953    -0.6360 C.ar    
   4 C4             2.2172     0.9713    -0.8058 C.ar    
   5 C5             2.0795     2.3514    -1.0294 C.ar    
   6 C6             0.8157     2.9302    -1.0791 C.ar    
   7 N7             3.4723     0.3899    -0.7544 N.pl3   
   8 C8             4.6086     1.0881    -0.9107 C.2     
   9 C9             4.5987     2.4424    -1.1346 C.2     
  10 C10            3.3033     3.1560    -1.2070 C.2     
  11 C11            5.6125     3.4721    -1.3410 C.2     
  12 N12            4.9418     4.6321    -1.5093 N.am    
  13 N13            3.5645     4.4130    -1.4244 N.2     
  14 O14            6.8226     3.3162    -1.3573 O.2     
  15 C15            3.5653    -1.0530    -0.5182 C.3     
  16 C16            3.5469    -1.7802    -1.8380 C.ar    
  17 C17            4.7286    -2.0491    -2.5032 C.ar    
  18 N18            4.7257    -2.6842    -3.6577 N.ar    
  19 C19            3.5974    -3.0890    -4.2258 C.ar    
  20 C20            2.3699    -2.8510    -3.6109 C.ar    
  21 C21            2.3438    -2.1915    -2.3945 C.ar    
  22 C22            5.5414     5.8774    -1.7366 C.ar    
  23 C23            5.2507     6.9533    -0.9046 C.ar    
  24 C24            6.4317     6.0392    -2.7896 C.ar    
  25 C25            7.0215     7.2684    -3.0114 C.ar    
  26 C26            6.7267     8.3384    -2.1863 C.ar    
  27 C27            5.8451     8.1811    -1.1328 C.ar    
  28 F28            4.3889     6.7994     0.1244 F       
  29 C29            3.6429    -3.8006    -5.5267 C.ar    
  30 C30            4.8653    -4.0420    -6.1479 C.ar    
  31 C31            4.9009    -4.7077    -7.3640 C.ar    
  32 C32            3.7189    -5.1314    -7.9584 C.ar    
  33 C33            2.5057    -4.8909    -7.3412 C.ar    
  34 C34            2.4621    -4.2345    -6.1277 C.ar    
  35 N35            6.1272    -4.9522    -7.9924 N.am    
  36 C36            7.2187    -5.2338    -7.2537 C.2     
  37 O37            7.1587    -5.1924    -6.0430 O.2     
  38 C38            8.5136    -5.6001    -7.9319 C.3     
  39 H39           -1.2873     2.5879    -0.9497 H       
  40 H40           -1.0541     0.1726    -0.5543 H       
  41 H41            1.1667    -0.8669    -0.4633 H       
  42 H42            0.7114     3.9913    -1.2511 H       
  43 H43            5.5551     0.5707    -0.8584 H       
  44 H44            4.4942    -1.2761     0.0066 H       
  45 H45            2.7190    -1.3773     0.0873 H       
  46 H46            5.6668    -1.7341    -2.0709 H       
  47 H47            1.4520    -3.1806    -4.0750 H       
  48 H48            1.4076    -1.9928    -1.8941 H       
  49 H49            6.6633     5.2045    -3.4347 H       
  50 H50            7.7143     7.3941    -3.8303 H       
  51 H51            7.1899     9.2980    -2.3624 H       
  52 H52            5.6170     9.0188    -0.4904 H       
  53 H53            5.7830    -3.7115    -5.6843 H       
  54 H54            3.7479    -5.6497    -8.9055 H       
  55 H55            1.5894    -5.2216    -7.8076 H       
  56 H56            1.5124    -4.0483    -5.6484 H       
  57 H57            6.1916    -4.9190    -8.9597 H       
  58 H58            9.0955    -4.6970    -8.1160 H       
  59 H59            9.0817    -6.2740    -7.2906 H       
  60 H60            8.3002    -6.0943    -8.8797 H       
@<TRIPOS>BOND
   1    1    2 ar
   2    1    6 ar
   3    1   39 1
   4    2    3 ar
   5    2   40 1
   6    3    4 ar
   7    3   41 1
   8    4    5 ar
   9    4    7 1
  10    5    6 ar
  11    5   10 1
  12    6   42 1
  13    7    8 1
  14    7   15 1
  15    8    9 2
  16    8   43 1
  17    9   10 1
  18    9   11 1
  19   10   13 2
  20   11   12 am
  21   11   14 2
  22   12   13 1
  23   12   22 1
  24   15   16 1
  25   15   44 1
  26   15   45 1
  27   16   17 ar
  28   16   21 ar
  29   17   18 ar
  30   17   46 1
  31   18   19 ar
  32   19   20 ar
  33   19   29 1
  34   20   21 ar
  35   20   47 1
  36   21   48 1
  37   22   23 ar
  38   22   24 ar
  39   23   28 1
  40   23   27 ar
  41   24   25 ar
  42   24   49 1
  43   25   26 ar
  44   25   50 1
  45   26   27 ar
  46   26   51 1
  47   27   52 1
  48   29   30 ar
  49   29   34 ar
  50   30   31 ar
  51   30   53 1
  52   31   32 ar
  53   31   35 1
  54   32   33 ar
  55   32   54 1
  56   33   34 ar
  57   33   55 1
  58   34   56 1
  59   35   36 am
  60   35   57 1
  61   36   37 2
  62   36   38 1
  63   38   58 1
  64   38   59 1
  65   38   60 1

#	End of record

