#	Name: ASD01870182
#	Creating user name:	WinNT
#	Creation time:	15. 06. 2019 19:38

#	Modifying user name:	WinNT
#	Modification time:	15. 06. 2019 19:38

#	Program:	/corina/corina34_cracker 3.40 0067  02.08.2006

@<TRIPOS>MOLECULE
ASD01870182
  65   69    0    0    0
SMALL
NO_CHARGES


@<TRIPOS>ATOM
   1 C1             0.4602     0.7372     0.1170 C.ar    
   2 C2             0.7250    -0.6312     0.1270 C.ar    
   3 C3             2.0165    -1.0756     0.1059 C.ar    
   4 C4             3.0487    -0.1194     0.0743 C.ar    
   5 C5             2.7088     1.2576     0.0657 C.ar    
   6 N6             1.4233     1.6251     0.0875 N.ar    
   7 C7             4.3999    -0.5049     0.0519 C.ar    
   8 C8             5.3778     0.4362     0.0220 C.ar    
   9 C9             5.0594     1.8077     0.0129 C.ar    
  10 C10            3.7345     2.2111     0.0342 C.ar    
  11 C11            5.9111     3.0146    -0.0175 C.2     
  12 N12            5.1501     4.1225    -0.0148 N.am    
  13 C13            3.7397     3.7189     0.0174 C.3     
  14 C14            5.6455     5.5010    -0.0394 C.3     
  15 C15            6.5986     5.6794    -1.2229 C.3     
  16 C16            7.1160     7.1190    -1.2486 C.3     
  17 C17            7.8599     7.4170     0.0548 C.3     
  18 C18            6.9067     7.2386     1.2382 C.3     
  19 C19            6.3894     5.7989     1.2639 C.3     
  20 C20            4.7644    -1.9672     0.0615 C.3     
  21 C21            4.7375    -2.5008    -1.3476 C.ar    
  22 C22            5.8788    -2.4627    -2.1343 C.ar    
  23 C23            5.8082    -2.9646    -3.4244 C.ar    
  24 C24            4.6097    -3.4834    -3.8811 C.ar    
  25 N25            3.5435    -3.5032    -3.1035 N.ar    
  26 C26            3.5768    -3.0394    -1.8695 C.ar    
  27 O27            7.1263     3.0067    -0.0415 O.2     
  28 Cl28           4.5071    -4.1149    -5.4949 Cl      
  29 O29            5.9039     5.4011    -2.4402 O.3     
  30 C30            3.0166     4.2337    -1.2289 C.3     
  31 C31            3.5729     3.5301    -2.4684 C.3     
  32 N32            2.8317     3.9730    -3.6568 N.3     
  33 C33            3.0712     5.3971    -3.9263 C.3     
  34 C34            3.1722     3.1515    -4.8261 C.3     
  35 H35           -0.5658     1.0744     0.1293 H       
  36 H36           -0.0900    -1.3394     0.1517 H       
  37 H37            2.2395    -2.1323     0.1136 H       
  38 H38            6.4131     0.1290     0.0053 H       
  39 H39            3.2597     4.1055     0.9164 H       
  40 H40            4.8051     6.1873    -0.1432 H       
  41 H41            7.4391     4.9931    -1.1192 H       
  42 H42            7.7950     7.2461    -2.0917 H       
  43 H43            6.2755     7.8053    -1.3523 H       
  44 H44            8.7003     6.7307     0.1585 H       
  45 H45            8.2284     8.4426     0.0365 H       
  46 H46            7.4367     7.4509     2.1668 H       
  47 H47            6.0663     7.9249     1.1345 H       
  48 H48            5.7104     5.6719     2.1070 H       
  49 H49            7.2298     5.1127     1.3676 H       
  50 H50            5.7644    -2.0896     0.4774 H       
  51 H51            4.0473    -2.5163     0.6717 H       
  52 H52            6.8008    -2.0512    -1.7510 H       
  53 H53            6.6776    -2.9506    -4.0651 H       
  54 H54            2.6841    -3.0726    -1.2626 H       
  55 H55            6.4482     5.4946    -3.2340 H       
  56 H56            1.9500     4.0267    -1.1416 H       
  57 H57            3.1717     5.3087    -1.3209 H       
  58 H58            4.6278     3.7788    -2.5846 H       
  59 H59            3.4643     2.4517    -2.3535 H       
  60 H60            4.1352     5.5606    -4.0970 H       
  61 H61            2.5107     5.6988    -4.8111 H       
  62 H62            2.7454     5.9886    -3.0706 H       
  63 H63            2.9198     2.1104    -4.6246 H       
  64 H64            2.6095     3.5008    -5.6918 H       
  65 H65            4.2399     3.2337    -5.0294 H       
@<TRIPOS>BOND
   1    1    2 ar
   2    1    6 ar
   3    1   35 1
   4    2    3 ar
   5    2   36 1
   6    3    4 ar
   7    3   37 1
   8    4    5 ar
   9    4    7 ar
  10    5    6 ar
  11    5   10 ar
  12    7    8 ar
  13    7   20 1
  14    8    9 ar
  15    8   38 1
  16    9   10 ar
  17    9   11 1
  18   10   13 1
  19   11   12 am
  20   11   27 2
  21   12   13 1
  22   12   14 1
  23   13   30 1
  24   13   39 1
  25   14   15 1
  26   14   19 1
  27   14   40 1
  28   15   16 1
  29   15   29 1
  30   15   41 1
  31   16   17 1
  32   16   42 1
  33   16   43 1
  34   17   18 1
  35   17   44 1
  36   17   45 1
  37   18   19 1
  38   18   46 1
  39   18   47 1
  40   19   48 1
  41   19   49 1
  42   20   21 1
  43   20   50 1
  44   20   51 1
  45   21   22 ar
  46   21   26 ar
  47   22   23 ar
  48   22   52 1
  49   23   24 ar
  50   23   53 1
  51   24   25 ar
  52   24   28 1
  53   25   26 ar
  54   26   54 1
  55   29   55 1
  56   30   31 1
  57   30   56 1
  58   30   57 1
  59   31   32 1
  60   31   58 1
  61   31   59 1
  62   32   33 1
  63   32   34 1
  64   33   60 1
  65   33   61 1
  66   33   62 1
  67   34   63 1
  68   34   64 1
  69   34   65 1

#	End of record

