#	Name: ASD03170009
#	Creating user name:	WinNT
#	Creation time:	15. 06. 2019 20:33

#	Modifying user name:	WinNT
#	Modification time:	15. 06. 2019 20:33

#	Program:	/corina/corina34_cracker 3.40 0067  02.08.2006

@<TRIPOS>MOLECULE
ASD03170009
  71   74    0    0    0
SMALL
NO_CHARGES


@<TRIPOS>ATOM
   1 C1             0.8386     1.3673    -0.0049 C.3     
   2 O2             0.6959    -0.0774    -0.0310 O.3     
   3 C3             0.9736    -0.6964    -1.1892 C.2     
   4 O4             1.3244    -0.0524    -2.1494 O.2     
   5 C5             0.8479    -2.1958    -1.2919 C.3     
   6 C6             1.6410    -2.8391    -0.1567 C.3     
   7 C7             1.6113    -4.3629    -0.2522 C.3     
   8 O8             2.4358    -4.9331     0.7987 O.3     
   9 C9             1.8340    -5.1995     1.9686 C.2     
  10 O10            0.6573    -4.9641     2.1100 O.2     
  11 C11            2.6258    -5.7921     3.1056 C.3     
  12 C12            2.1528    -4.8084    -1.6171 C.3     
  13 C13            1.2767    -4.1792    -2.6981 C.3     
  14 C14            1.3857    -2.6616    -2.6581 C.3     
  15 C15            2.8254    -2.1644    -2.7858 C.3     
  16 C16            0.5422    -2.0230    -3.7624 C.3     
  17 C17            0.8904    -2.6265    -5.1266 C.3     
  18 C18            0.5974    -4.1187    -5.0941 C.3     
  19 C19            1.4859    -4.8136    -4.0559 C.3     
  20 C20            2.9476    -4.7878    -4.4921 C.3     
  21 C21            1.0213    -6.2810    -4.0327 C.3     
  22 C22            1.2826    -6.9379    -5.3840 C.3     
  23 O23            1.0983    -6.0705    -6.5120 O.3     
  24 C24            0.8376    -4.7657    -6.4332 C.2     
  25 O25            0.7893    -4.0864    -7.4453 O.2     
  26 C26            0.3700    -8.1290    -5.5239 C.2     
  27 C27           -0.8891    -8.1549    -6.1664 C.2     
  28 C28           -1.3557    -9.4119    -6.0588 C.2     
  29 O29           -0.4511   -10.1445    -5.3890 O.3     
  30 C30            0.5998    -9.3729    -5.0665 C.2     
  31 C31            1.8244    -9.8223    -4.3119 C.3     
  32 N32            2.8856   -10.1733    -5.2652 N.3     
  33 C33            4.1890   -10.2605    -4.5934 C.3     
  34 C34            2.5701   -11.4248    -5.9668 C.3     
  35 H35            1.8687     1.6349    -0.2404 H       
  36 H36            0.1701     1.8118    -0.7422 H       
  37 H37            0.5843     1.7397     0.9874 H       
  38 H38           -0.2032    -2.4776    -1.2134 H       
  39 H39            2.6706    -2.4860    -0.1589 H       
  40 H40            1.1860    -2.5406     0.7988 H       
  41 H41            0.5862    -4.7180    -0.1421 H       
  42 H42            3.0458    -4.9901     3.7127 H       
  43 H43            1.9715    -6.4093     3.7212 H       
  44 H44            3.4330    -6.4055     2.7053 H       
  45 H45            3.1903    -4.5091    -1.7134 H       
  46 H46            2.0858    -5.8974    -1.6790 H       
  47 H47            0.2226    -4.4189    -2.4040 H       
  48 H48            3.4028    -2.4982    -1.9237 H       
  49 H49            3.2687    -2.5653    -3.6973 H       
  50 H50            2.8312    -1.0752    -2.8275 H       
  51 H51           -0.5148    -2.1908    -3.5528 H       
  52 H52            0.7360    -0.9495    -3.8011 H       
  53 H53            0.2616    -2.1525    -5.8907 H       
  54 H54            1.9304    -2.4363    -5.3744 H       
  55 H55           -0.4529    -4.2674    -4.8137 H       
  56 H56            3.2309    -3.7682    -4.7534 H       
  57 H57            3.5767    -5.1417    -3.6754 H       
  58 H58            3.0795    -5.4351    -5.3591 H       
  59 H59            1.5712    -6.8115    -3.2536 H       
  60 H60           -0.0447    -6.3089    -3.8030 H       
  61 H61            2.3135    -7.3252    -5.3927 H       
  62 H62           -1.3819    -7.3246    -6.6502 H       
  63 H63           -2.2981    -9.7710    -6.4453 H       
  64 H64            2.1692    -9.0154    -3.6653 H       
  65 H65            1.5780   -10.6938    -3.7054 H       
  66 H66            4.1480   -11.0261    -3.8187 H       
  67 H67            4.9565   -10.5216    -5.3220 H       
  68 H68            4.4297    -9.2984    -4.1411 H       
  69 H69            1.6838   -11.2814    -6.5849 H       
  70 H70            3.4116   -11.7091    -6.5986 H       
  71 H71            2.3809   -12.2124    -5.2375 H       
@<TRIPOS>BOND
   1    1    2 1
   2    1   35 1
   3    1   36 1
   4    1   37 1
   5    2    3 1
   6    3    4 2
   7    3    5 1
   8    5    6 1
   9    5   14 1
  10    5   38 1
  11    6    7 1
  12    6   39 1
  13    6   40 1
  14    7    8 1
  15    7   12 1
  16    7   41 1
  17    8    9 1
  18    9   10 2
  19    9   11 1
  20   11   42 1
  21   11   43 1
  22   11   44 1
  23   12   13 1
  24   12   45 1
  25   12   46 1
  26   13   14 1
  27   13   19 1
  28   13   47 1
  29   14   15 1
  30   14   16 1
  31   15   48 1
  32   15   49 1
  33   15   50 1
  34   16   17 1
  35   16   51 1
  36   16   52 1
  37   17   18 1
  38   17   53 1
  39   17   54 1
  40   18   19 1
  41   18   24 1
  42   18   55 1
  43   19   20 1
  44   19   21 1
  45   20   56 1
  46   20   57 1
  47   20   58 1
  48   21   22 1
  49   21   59 1
  50   21   60 1
  51   22   23 1
  52   22   26 1
  53   22   61 1
  54   23   24 1
  55   24   25 2
  56   26   27 1
  57   26   30 2
  58   27   28 2
  59   27   62 1
  60   28   29 1
  61   28   63 1
  62   29   30 1
  63   30   31 1
  64   31   32 1
  65   31   64 1
  66   31   65 1
  67   32   33 1
  68   32   34 1
  69   33   66 1
  70   33   67 1
  71   33   68 1
  72   34   69 1
  73   34   70 1
  74   34   71 1

#	End of record

