#	Name: ASD05313011
#	Creating user name:	WinNT
#	Creation time:	15. 06. 2019 20:58

#	Modifying user name:	WinNT
#	Modification time:	15. 06. 2019 20:58

#	Program:	/corina/corina34_cracker 3.40 0067  02.08.2006

@<TRIPOS>MOLECULE
ASD05313011
  29   31    0    0    0
SMALL
NO_CHARGES


@<TRIPOS>ATOM
   1 C1            -0.0729     0.8191     1.0195 C.2     
   2 C2             0.1130    -0.6173     0.5936 C.3     
   3 N3             0.9356     1.7367     1.0457 N.pl3   
   4 N4             1.4571    -0.7165    -0.0067 N.am    
   5 C5             2.5713    -0.0360     0.6703 C.3     
   6 C6             2.3217     1.4769     0.6608 C.3     
   7 N7            -0.8893     2.6459     1.6981 N.2     
   8 N8            -1.1524     1.4149     1.4204 N.2     
   9 C9             0.3795     2.8894     1.4857 C.2     
  10 C10            1.6582    -1.4118    -1.1436 C.2     
  11 O11            2.7504    -1.4012    -1.6774 O.2     
  12 C12            0.5516    -2.1866    -1.7411 C.ar    
  13 C13            0.3204    -2.1323    -3.1185 C.ar    
  14 C14           -0.7156    -2.8590    -3.6700 C.ar    
  15 C15           -1.5241    -3.6399    -2.8615 C.ar    
  16 C16           -1.2993    -3.6973    -1.4957 C.ar    
  17 C17           -0.2643    -2.9809    -0.9331 C.ar    
  18 Cl18          -2.8254    -4.5506    -3.5622 Cl      
  19 Cl19           1.3332    -1.1530    -4.1329 Cl      
  20 Br20           1.2677     4.5381     1.7485 Br      
  21 H21            0.0432    -1.2744     1.4605 H       
  22 H22           -0.6441    -0.8883    -0.1421 H       
  23 H23            2.6403    -0.3870     1.6999 H       
  24 H24            3.5025    -0.2545     0.1476 H       
  25 H25            2.5015     1.8694    -0.3401 H       
  26 H26            2.9935     1.9615     1.3693 H       
  27 H27           -0.8961    -2.8181    -4.7341 H       
  28 H28           -1.9336    -4.3084    -0.8707 H       
  29 H29           -0.0877    -3.0307     0.1312 H       
@<TRIPOS>BOND
   1    1    2 1
   2    1    3 1
   3    1    8 2
   4    2    4 1
   5    2   21 1
   6    2   22 1
   7    3    6 1
   8    3    9 1
   9    4    5 1
  10    4   10 am
  11    5    6 1
  12    5   23 1
  13    5   24 1
  14    6   25 1
  15    6   26 1
  16    7    8 1
  17    7    9 2
  18    9   20 1
  19   10   11 2
  20   10   12 1
  21   12   13 ar
  22   12   17 ar
  23   13   14 ar
  24   13   19 1
  25   14   15 ar
  26   14   27 1
  27   15   16 ar
  28   15   18 1
  29   16   17 ar
  30   16   28 1
  31   17   29 1

#	End of record

