#	Name: ASD09080013
#	Creating user name:	WinNT
#	Creation time:	15. 06. 2019 21:20

#	Modifying user name:	WinNT
#	Modification time:	15. 06. 2019 21:20

#	Program:	/corina/corina34_cracker 3.40 0067  02.08.2006

@<TRIPOS>MOLECULE
ASD09080013
  62   64    0    0    0
SMALL
NO_CHARGES


@<TRIPOS>ATOM
   1 C1            -0.0167     1.3772     0.0096 C.ar    
   2 C2             0.0021    -0.0041     0.0020 C.ar    
   3 C3            -1.1962    -0.7147     0.0101 C.ar    
   4 C4            -2.4082    -0.0277     0.0258 C.ar    
   5 C5            -2.4165     1.3537     0.0333 C.ar    
   6 C6            -1.2232     2.0552     0.0306 C.ar    
   7 Cl7            1.4756     2.2642     0.0001 Cl      
   8 Cl8           -3.9258     2.2111     0.0523 Cl      
   9 C9            -1.1817    -2.1986     0.0015 C.ar    
  10 C10           -2.3800    -2.9096     0.0096 C.ar    
  11 C11            0.0301    -2.8859    -0.0204 C.ar    
  12 C12            0.0377    -4.2660    -0.0283 C.ar    
  13 C13           -1.1547    -4.9669    -0.0144 C.ar    
  14 C14           -2.3607    -4.2896     0.0016 C.ar    
  15 C15           -1.1400    -6.4738    -0.0231 C.3     
  16 C16           -1.1135    -6.9918     1.4163 C.3     
  17 C17           -1.2242    -8.5178     1.4112 C.3     
  18 N18            0.1441    -6.5956     2.0548 N.am    
  19 C19           -1.1977    -9.0359     2.8506 C.3     
  20 O20           -2.4509    -8.9043     0.7884 O.3     
  21 C21           -1.4298   -10.5249     2.8529 C.2     
  22 C22           -0.2958   -11.4647     2.5336 C.3     
  23 C23            1.3200    -7.0057     1.5394 C.2     
  24 C24            2.6137    -6.5982     2.1963 C.3     
  25 O25            1.3371    -7.7028     0.5471 O.2     
  26 O26            3.7121    -7.1531     1.4700 O.3     
  27 C27            4.9928    -6.8251     2.0126 C.3     
  28 O28           -2.2250    -8.3925     3.6074 O.3     
  29 O29           -2.5244   -10.9650     3.1105 O.2     
  30 C30           -0.7952   -12.9092     2.6045 C.3     
  31 C31            0.3388   -13.8490     2.2852 C.2     
  32 C32            1.2040   -14.3885     3.1626 C.2     
  33 O33            2.0627   -15.1690     2.4864 O.3     
  34 C34            1.7603   -15.1390     1.1782 C.2     
  35 C35            0.6936   -14.3376     1.0068 C.2     
  36 H36            0.9441    -0.5322    -0.0105 H       
  37 H37           -3.3397    -0.5743     0.0318 H       
  38 H38           -1.2338     3.1351     0.0364 H       
  39 H39           -3.3222    -2.3818     0.0225 H       
  40 H40            0.9617    -2.3396    -0.0316 H       
  41 H41            0.9765    -4.7998    -0.0457 H       
  42 H42           -3.2888    -4.8418     0.0127 H       
  43 H43           -2.0339    -6.8430    -0.5257 H       
  44 H44           -0.2542    -6.8254    -0.5522 H       
  45 H45           -1.9513    -6.5686     1.9702 H       
  46 H46           -0.3863    -8.9411     0.8572 H       
  47 H47            0.1305    -6.0381     2.8485 H       
  48 H48           -0.2274    -8.8187     3.2971 H       
  49 H49           -3.2407    -8.5623     1.2293 H       
  50 H50            0.0761   -11.2577     1.5301 H       
  51 H51            0.5083   -11.3224     3.2556 H       
  52 H52            2.6926    -5.5110     2.1999 H       
  53 H53            2.6326    -6.9672     3.2217 H       
  54 H54            5.7730    -7.2835     1.4051 H       
  55 H55            5.1210    -5.7426     2.0125 H       
  56 H56            5.0610    -7.1989     3.0343 H       
  57 H57           -3.1174    -8.5428     3.2664 H       
  58 H58           -1.1671   -13.1162     3.6080 H       
  59 H59           -1.5993   -13.0515     1.8825 H       
  60 H60            1.2078   -14.2218     4.2296 H       
  61 H61            2.2823   -15.6714     0.3969 H       
  62 H62            0.2064   -14.1058     0.0713 H       
@<TRIPOS>BOND
   1    1    2 ar
   2    1    7 1
   3    1    6 ar
   4    2    3 ar
   5    2   36 1
   6    3    4 ar
   7    3    9 1
   8    4    5 ar
   9    4   37 1
  10    5    6 ar
  11    5    8 1
  12    6   38 1
  13    9   10 ar
  14    9   11 ar
  15   10   14 ar
  16   10   39 1
  17   11   12 ar
  18   11   40 1
  19   12   13 ar
  20   12   41 1
  21   13   14 ar
  22   13   15 1
  23   14   42 1
  24   15   16 1
  25   15   43 1
  26   15   44 1
  27   16   17 1
  28   16   18 1
  29   16   45 1
  30   17   19 1
  31   17   20 1
  32   17   46 1
  33   18   23 am
  34   18   47 1
  35   19   21 1
  36   19   28 1
  37   19   48 1
  38   20   49 1
  39   21   22 1
  40   21   29 2
  41   22   30 1
  42   22   50 1
  43   22   51 1
  44   23   24 1
  45   23   25 2
  46   24   26 1
  47   24   52 1
  48   24   53 1
  49   26   27 1
  50   27   54 1
  51   27   55 1
  52   27   56 1
  53   28   57 1
  54   30   31 1
  55   30   58 1
  56   30   59 1
  57   31   32 2
  58   31   35 1
  59   32   33 1
  60   32   60 1
  61   33   34 1
  62   34   35 2
  63   34   61 1
  64   35   62 1

#	End of record

