#	Name: ASD01411284
#	Creating user name:	WinNT
#	Creation time:	15. 06. 2019 19:19

#	Modifying user name:	WinNT
#	Modification time:	15. 06. 2019 19:19

#	Program:	/corina/corina34_cracker 3.40 0067  02.08.2006

@<TRIPOS>MOLECULE
ASD01411284
  75   79    0    0    0
SMALL
NO_CHARGES


@<TRIPOS>ATOM
   1 C1            -0.0170     1.4061     0.0098 C.ar    
   2 C2             0.0021    -0.0041     0.0020 C.ar    
   3 C3            -1.2033    -0.7204     0.0454 C.ar    
   4 C4            -2.3928    -0.0544     0.0507 C.ar    
   5 C5            -2.4183     1.3419     0.0081 C.ar    
   6 C6            -1.2301     2.0716     0.0126 C.ar    
   7 N7             1.2955     1.8354    -0.0005 N.pl3   
   8 C8             2.1197     0.7356    -0.0608 C.2     
   9 C9             1.3622    -0.3915    -0.0594 C.2     
  10 C10            1.7349     3.2321     0.0543 C.3     
  11 C11            0.9614     4.0489    -0.9481 C.2     
  12 N12            1.0656     5.4157    -0.8988 N.am    
  13 O13            0.2627     3.5100    -1.7801 O.2     
  14 C14            0.2917     6.1241    -1.9493 C.3     
  15 C15           -2.2078     6.1227    -1.9531 C.3     
  16 C16           -3.6970     2.0812    -0.0791 C.2     
  17 O17           -4.7700     1.5114    -0.1308 O.2     
  18 N18           -3.5974     3.4480    -0.0975 N.am    
  19 C19           -3.4205     6.3750    -1.0556 C.3     
  20 N20           -4.5298     5.4966    -1.5015 N.am    
  21 S21           -4.9917     4.2990    -0.4289 S.o2    
  22 C22            3.5962     0.7745    -0.1186 C.ar    
  23 C23            4.2397     1.6683    -0.9766 C.ar    
  24 C24            1.8787    -1.8062    -0.1131 C.3     
  25 C25            1.4238    -2.5630     1.1363 C.3     
  26 C26            1.9483    -3.9993     1.0818 C.3     
  27 C27            1.3988    -4.6959    -0.1648 C.3     
  28 C28            1.8538    -3.9390    -1.4142 C.3     
  29 C29            1.3293    -2.5027    -1.3596 C.3     
  30 C30            5.6167     1.7018    -1.0273 C.ar    
  31 C31            6.3639     0.8477    -0.2266 C.ar    
  32 C32            5.7275    -0.0428     0.6282 C.ar    
  33 C33            4.3509    -0.0785     0.6889 C.ar    
  34 O34           -5.8479     3.4184    -1.1436 O.2     
  35 O35           -5.3680     4.9521     0.7757 O.2     
  36 C36           -5.1813     5.6688    -2.8023 C.3     
  37 C37           -0.9590     6.7308    -1.3112 C.3     
  38 O38            7.7209     0.8832    -0.2801 O.3     
  39 C39            8.4275    -0.0223     0.5701 C.3     
  40 H40           -1.1889    -1.7999     0.0743 H       
  41 H41           -3.3191    -0.6084     0.0875 H       
  42 H42           -1.2565     3.1513     0.0179 H       
  43 H43            1.5618     3.6276     1.0551 H       
  44 H44            2.7987     3.2867    -0.1771 H       
  45 H45            1.5991     5.8796    -0.2346 H       
  46 H46            0.9026     6.9164    -2.3819 H       
  47 H47           -0.0002     5.4183    -2.7269 H       
  48 H48           -2.0660     5.0492    -2.0783 H       
  49 H49           -2.3751     6.5824    -2.9271 H       
  50 H50           -2.7558     3.8986     0.0744 H       
  51 H51           -3.1641     6.1458    -0.0213 H       
  52 H52           -3.7248     7.4184    -1.1369 H       
  53 H53            3.6594     2.3322    -1.6001 H       
  54 H54            2.9679    -1.7939    -0.1541 H       
  55 H55            1.8153    -2.0668     2.0244 H       
  56 H56            0.3347    -2.5753     1.1773 H       
  57 H57            3.0375    -3.9871     1.0408 H       
  58 H58            1.6242    -4.5385     1.9719 H       
  59 H59            1.7725    -5.7191    -0.2036 H       
  60 H60            0.3097    -4.7081    -0.1238 H       
  61 H61            2.9429    -3.9268    -1.4552 H       
  62 H62            1.4623    -4.4352    -2.3023 H       
  63 H63            0.2401    -2.5150    -1.3187 H       
  64 H64            1.6534    -1.9635    -2.2498 H       
  65 H65            6.1152     2.3929    -1.6908 H       
  66 H66            6.3120    -0.7054     1.2493 H       
  67 H67            3.8568    -0.7710     1.3541 H       
  68 H68           -4.6630     5.0690    -3.5504 H       
  69 H69           -6.2201     5.3461    -2.7339 H       
  70 H70           -5.1453     6.7194    -3.0904 H       
  71 H71           -0.9604     6.5188    -0.2420 H       
  72 H72           -0.9593     7.8096    -1.4672 H       
  73 H73            9.5003     0.1093     0.4294 H       
  74 H74            8.1699     0.1795     1.6098 H       
  75 H75            8.1512    -1.0465     0.3196 H       
@<TRIPOS>BOND
   1    1    2 ar
   2    1    7 1
   3    1    6 ar
   4    2    3 ar
   5    2    9 1
   6    3    4 ar
   7    3   40 1
   8    4    5 ar
   9    4   41 1
  10    5    6 ar
  11    5   16 1
  12    6   42 1
  13    7    8 1
  14    7   10 1
  15    8    9 2
  16    8   22 1
  17    9   24 1
  18   10   11 1
  19   10   43 1
  20   10   44 1
  21   11   12 am
  22   11   13 2
  23   12   14 1
  24   12   45 1
  25   14   37 1
  26   14   46 1
  27   14   47 1
  28   15   19 1
  29   15   37 1
  30   15   48 1
  31   15   49 1
  32   16   17 2
  33   16   18 am
  34   18   21 am
  35   18   50 1
  36   19   20 1
  37   19   51 1
  38   19   52 1
  39   20   21 am
  40   20   36 1
  41   21   34 2
  42   21   35 2
  43   22   23 ar
  44   22   33 ar
  45   23   30 ar
  46   23   53 1
  47   24   25 1
  48   24   29 1
  49   24   54 1
  50   25   26 1
  51   25   55 1
  52   25   56 1
  53   26   27 1
  54   26   57 1
  55   26   58 1
  56   27   28 1
  57   27   59 1
  58   27   60 1
  59   28   29 1
  60   28   61 1
  61   28   62 1
  62   29   63 1
  63   29   64 1
  64   30   31 ar
  65   30   65 1
  66   31   32 ar
  67   31   38 1
  68   32   33 ar
  69   32   66 1
  70   33   67 1
  71   36   68 1
  72   36   69 1
  73   36   70 1
  74   37   71 1
  75   37   72 1
  76   38   39 1
  77   39   73 1
  78   39   74 1
  79   39   75 1

#	End of record

