#	Name: ASD03092683
#	Creating user name:	WinNT
#	Creation time:	15. 06. 2019 20:33

#	Modifying user name:	WinNT
#	Modification time:	15. 06. 2019 20:33

#	Program:	/corina/corina34_cracker 3.40 0067  02.08.2006

@<TRIPOS>MOLECULE
ASD03092683
  43   45    0    0    0
SMALL
NO_CHARGES


@<TRIPOS>ATOM
   1 C1            -0.0187     1.5258     0.0104 C.3     
   2 C2             0.0021    -0.0041     0.0020 C.3     
   3 C3             1.3165     0.7789    -0.0063 C.3     
   4 C4            -0.4176     2.2092     1.2929 C.2     
   5 O5            -0.7068     1.5482     2.2678 O.2     
   6 N6            -0.4530     3.5550     1.3566 N.am    
   7 C7            -0.8408     4.2194     2.6034 C.3     
   8 C8             0.3833     4.3550     3.5112 C.3     
   9 C9            -0.8027     6.3721     1.3205 C.ar    
  10 C10           -1.3904     5.5879     2.2934 C.ar    
  11 C11           -2.4930     6.0736     2.9823 C.ar    
  12 C12           -2.9658     7.3355     2.6660 C.ar    
  13 C13           -2.3249     8.0686     1.6759 C.ar    
  14 N14           -1.2760     7.5715     1.0414 N.ar    
  15 O15           -2.7786     9.3067     1.3565 O.3     
  16 C16           -2.0765    10.0101     0.3297 C.3     
  17 C17           -2.7038    11.3250     0.1186 C.1     
  18 N18           -3.1879    12.3397    -0.0443 N.1     
  19 C19           -0.4023    -0.6984    -1.2729 C.ar    
  20 C20           -1.4808    -1.5632    -1.2768 C.ar    
  21 C21           -1.8517    -2.2002    -2.4462 C.ar    
  22 C22           -1.1445    -1.9720    -3.6118 C.ar    
  23 C23           -0.0666    -1.1066    -3.6081 C.ar    
  24 C24            0.3016    -0.4663    -2.4397 C.ar    
  25 H25           -0.3248     2.0300    -0.9061 H       
  26 H26           -0.2728    -0.5162     0.9241 H       
  27 H27            1.8888     0.7918    -0.9339 H       
  28 H28            1.9064     0.7818     0.9103 H       
  29 H29           -0.2217     4.0837     0.5769 H       
  30 H30           -1.6040     3.6273     3.1085 H       
  31 H31            1.1464     4.9471     3.0061 H       
  32 H32            0.0947     4.8493     4.4388 H       
  33 H33            0.7808     3.3651     3.7354 H       
  34 H34            0.0583     6.0007     0.7845 H       
  35 H35           -2.9713     5.4803     3.7476 H       
  36 H36           -3.8219     7.7443     3.1821 H       
  37 H37           -1.0373    10.1471     0.6286 H       
  38 H38           -2.1157     9.4361    -0.5960 H       
  39 H39           -2.0333    -1.7415    -0.3661 H       
  40 H40           -2.6938    -2.8764    -2.4491 H       
  41 H41           -1.4339    -2.4702    -4.5253 H       
  42 H42            0.4861    -0.9286    -4.5187 H       
  43 H43            1.1415     0.2128    -2.4376 H       
@<TRIPOS>BOND
   1    1    2 1
   2    1    3 1
   3    1    4 1
   4    1   25 1
   5    2    3 1
   6    2   19 1
   7    2   26 1
   8    3   27 1
   9    3   28 1
  10    4    5 2
  11    4    6 am
  12    6    7 1
  13    6   29 1
  14    7    8 1
  15    7   10 1
  16    7   30 1
  17    8   31 1
  18    8   32 1
  19    8   33 1
  20    9   10 ar
  21    9   14 ar
  22    9   34 1
  23   10   11 ar
  24   11   12 ar
  25   11   35 1
  26   12   13 ar
  27   12   36 1
  28   13   14 ar
  29   13   15 1
  30   15   16 1
  31   16   17 1
  32   16   37 1
  33   16   38 1
  34   17   18 3
  35   19   20 ar
  36   19   24 ar
  37   20   21 ar
  38   20   39 1
  39   21   22 ar
  40   21   40 1
  41   22   23 ar
  42   22   41 1
  43   23   24 ar
  44   23   42 1
  45   24   43 1

#	End of record

