#	Name: ASD03731723
#	Creating user name:	WinNT
#	Creation time:	15. 06. 2019 20:46

#	Modifying user name:	WinNT
#	Modification time:	15. 06. 2019 20:46

#	Program:	/corina/corina34_cracker 3.40 0067  02.08.2006

@<TRIPOS>MOLECULE
ASD03731723
  37   38    0    0    0
SMALL
NO_CHARGES


@<TRIPOS>ATOM
   1 C1             0.7599     1.4150    -0.4030 C.2     
   2 C2             0.5750    -0.0458    -0.3023 C.ar    
   3 C3             1.5338    -0.9116    -0.8352 C.ar    
   4 C4             1.3580    -2.2738    -0.7389 C.ar    
   5 C5             0.2282    -2.7882    -0.1128 C.ar    
   6 C6            -0.7279    -1.9301     0.4186 C.ar    
   7 C7            -0.5564    -0.5667     0.3313 C.ar    
   8 O8             1.7473     1.8666    -0.9501 O.2     
   9 N9            -0.1686     2.2485     0.1067 N.am    
  10 S10            0.0388     3.8876    -0.0063 S.o2    
  11 O11           -1.0998     4.4308     0.6478 O.2     
  12 O12            1.3488     4.1106     0.4972 O.2     
  13 C13           -0.0259     4.2304    -1.7864 C.3     
  14 O14            0.0581    -4.1312    -0.0206 O.3     
  15 C15            0.5847    -4.7688     1.0588 C.ar    
  16 C16            0.5358    -6.1542     1.1391 C.ar    
  17 C17            1.0711    -6.8015     2.2364 C.ar    
  18 C18            1.6570    -6.0671     3.2571 C.ar    
  19 C19            1.7051    -4.6834     3.1767 C.ar    
  20 C20            1.1756    -4.0360     2.0770 C.ar    
  21 O21            2.1837    -6.7039     4.3369 O.3     
  22 C22            2.7712    -5.8853     5.3501 C.3     
  23 Cl23          -0.1979    -7.0727    -0.1382 Cl      
  24 H24            2.4113    -0.5128    -1.3223 H       
  25 H25            2.0985    -2.9436    -1.1505 H       
  26 H26           -1.6042    -2.3334     0.9042 H       
  27 H27           -1.2975     0.0993     0.7480 H       
  28 H28           -0.9583     1.8883     0.5396 H       
  29 H29           -0.9909     3.9140    -2.1825 H       
  30 H30            0.1035     5.2994    -1.9555 H       
  31 H31            0.7708     3.6837    -2.2909 H       
  32 H32            1.0331    -7.8790     2.2995 H       
  33 H33            2.1610    -4.1120     3.9718 H       
  34 H34            1.2176    -2.9587     2.0126 H       
  35 H35            3.5909    -5.3087     4.9215 H       
  36 H36            2.0187    -5.2053     5.7495 H       
  37 H37            3.1521    -6.5173     6.1523 H       
@<TRIPOS>BOND
   1    1    2 1
   2    1    8 2
   3    1    9 am
   4    2    3 ar
   5    2    7 ar
   6    3    4 ar
   7    3   24 1
   8    4    5 ar
   9    4   25 1
  10    5    6 ar
  11    5   14 1
  12    6    7 ar
  13    6   26 1
  14    7   27 1
  15    9   10 am
  16    9   28 1
  17   10   11 2
  18   10   12 2
  19   10   13 1
  20   13   29 1
  21   13   30 1
  22   13   31 1
  23   14   15 1
  24   15   16 ar
  25   15   20 ar
  26   16   17 ar
  27   16   23 1
  28   17   18 ar
  29   17   32 1
  30   18   19 ar
  31   18   21 1
  32   19   20 ar
  33   19   33 1
  34   20   34 1
  35   21   22 1
  36   22   35 1
  37   22   36 1
  38   22   37 1

#	End of record

