#	Name: ASD01917220
#	Creating user name:	WinNT
#	Creation time:	15. 06. 2019 20:08

#	Modifying user name:	WinNT
#	Modification time:	15. 06. 2019 20:08

#	Program:	/corina/corina34_cracker 3.40 0067  02.08.2006

@<TRIPOS>MOLECULE
ASD01917220
  48   51    0    0    0
SMALL
NO_CHARGES


@<TRIPOS>ATOM
   1 C1            -0.0179     1.4687     0.0101 C.2     
   2 C2             0.0021    -0.0041     0.0020 C.2     
   3 N3             1.1556     2.1904     0.0028 N.pl3   
   4 N4             1.1957    -0.5891     0.2671 N.am    
   5 C5             2.3540     0.1834     0.6992 C.3     
   6 C6             2.4625     1.5323    -0.0110 C.3     
   7 N7             0.8213     3.5381     0.0116 N.2     
   8 C8            -0.4913     3.6460     0.0247 C.2     
   9 C9            -1.0494     2.3600     0.0192 C.2     
  10 O10           -0.9967    -0.6586    -0.2292 O.2     
  11 C11            1.3254    -2.0405     0.1155 C.3     
  12 C12            1.7573    -2.3619    -1.2921 C.ar    
  13 C13            3.0909    -2.2399    -1.6537 C.ar    
  14 C14            3.4855    -2.5367    -2.9511 C.ar    
  15 C15            2.5487    -2.9528    -3.8788 C.ar    
  16 C16            1.2204    -3.0732    -3.5149 C.ar    
  17 C17            0.8263    -2.7835    -2.2215 C.ar    
  18 O18            4.0095    -1.8301    -0.7395 O.3     
  19 C19            4.6506    -2.8450     0.0358 C.3     
  20 Cl20           5.1534    -2.3849    -3.4082 Cl      
  21 O21           -1.1901     4.8127     0.0373 O.3     
  22 C22           -0.4312     6.0235     0.0357 C.3     
  23 C23           -1.3682     7.2037     0.0507 C.ar    
  24 C24           -1.7861     7.7392     1.2547 C.ar    
  25 C25           -2.6457     8.8217     1.2685 C.ar    
  26 C26           -3.0870     9.3690     0.0783 C.ar    
  27 C27           -2.6684     8.8342    -1.1257 C.ar    
  28 C28           -1.8054     7.7544    -1.1395 C.ar    
  29 H29            2.2810     0.3562     1.7729 H       
  30 H30            3.2566    -0.3937     0.4983 H       
  31 H31            2.7806     1.3760    -1.0418 H       
  32 H32            3.1908     2.1581     0.5048 H       
  33 H33           -2.1023     2.1196     0.0228 H       
  34 H34            2.0701    -2.4141     0.8183 H       
  35 H35            0.3648    -2.5142     0.3179 H       
  36 H36            2.8547    -3.1836    -4.8885 H       
  37 H37            0.4900    -3.3981    -4.2411 H       
  38 H38           -0.2112    -2.8831    -1.9388 H       
  39 H39            5.1818    -3.5277    -0.6274 H       
  40 H40            5.3582    -2.3835     0.7246 H       
  41 H41            3.9008    -3.3980     0.6016 H       
  42 H42            0.2059     6.0542     0.9196 H       
  43 H43            0.1883     6.0629    -0.8603 H       
  44 H44           -1.4414     7.3115     2.1846 H       
  45 H45           -2.9727     9.2396     2.2091 H       
  46 H46           -3.7591    10.2144     0.0891 H       
  47 H47           -3.0134     9.2616    -2.0555 H       
  48 H48           -1.4754     7.3388    -2.0801 H       
@<TRIPOS>BOND
   1    1    2 1
   2    1    3 1
   3    1    9 2
   4    2    4 am
   5    2   10 2
   6    3    6 1
   7    3    7 1
   8    4    5 1
   9    4   11 1
  10    5    6 1
  11    5   29 1
  12    5   30 1
  13    6   31 1
  14    6   32 1
  15    7    8 2
  16    8    9 1
  17    8   21 1
  18    9   33 1
  19   11   12 1
  20   11   34 1
  21   11   35 1
  22   12   13 ar
  23   12   17 ar
  24   13   14 ar
  25   13   18 1
  26   14   15 ar
  27   14   20 1
  28   15   16 ar
  29   15   36 1
  30   16   17 ar
  31   16   37 1
  32   17   38 1
  33   18   19 1
  34   19   39 1
  35   19   40 1
  36   19   41 1
  37   21   22 1
  38   22   23 1
  39   22   42 1
  40   22   43 1
  41   23   24 ar
  42   23   28 ar
  43   24   25 ar
  44   24   44 1
  45   25   26 ar
  46   25   45 1
  47   26   27 ar
  48   26   46 1
  49   27   28 ar
  50   27   47 1
  51   28   48 1

#	End of record

