#	Name: ASD01410757
#	Creating user name:	WinNT
#	Creation time:	15. 06. 2019 19:18

#	Modifying user name:	WinNT
#	Modification time:	15. 06. 2019 19:18

#	Program:	/corina/corina34_cracker 3.40 0067  02.08.2006

@<TRIPOS>MOLECULE
ASD01410757
  20   20    0    0    0
SMALL
NO_CHARGES


@<TRIPOS>ATOM
   1 S1            -0.0218     1.7567     0.0117 S.3     
   2 C2             0.0021    -0.0041     0.0020 C.2     
   3 N3             1.2432    -0.4106    -0.0120 N.2     
   4 C4             2.1515     0.5284    -0.0156 C.2     
   5 C5             1.6885     1.7890    -0.0045 C.2     
   6 C6            -1.1831    -0.8754     0.0094 C.2     
   7 O7            -1.0493    -2.0834     0.0020 O.2     
   8 O8            -2.4177    -0.3340     0.0244 O.3     
   9 C9             3.6258     0.2167    -0.0309 C.3     
  10 C10            4.1376     0.2422    -1.4726 C.3     
  11 C11            4.3769     1.2627     0.7954 C.3     
  12 H12            2.2983     2.6804    -0.0060 H       
  13 H13           -3.1658    -0.9467     0.0287 H       
  14 H14            3.7926    -0.7721     0.3964 H       
  15 H15            3.9708     1.2310    -1.8999 H       
  16 H16            5.2040     0.0167    -1.4836 H       
  17 H17            3.6026    -0.5030    -2.0613 H       
  18 H18            4.2101     2.2515     0.3681 H       
  19 H19            4.0123     1.2446     1.8225 H       
  20 H20            5.4432     1.0372     0.7843 H       
@<TRIPOS>BOND
   1    1    2 1
   2    1    5 1
   3    2    3 2
   4    2    6 1
   5    3    4 1
   6    4    5 2
   7    4    9 1
   8    5   12 1
   9    6    7 2
  10    6    8 1
  11    8   13 1
  12    9   10 1
  13    9   11 1
  14    9   14 1
  15   10   15 1
  16   10   16 1
  17   10   17 1
  18   11   18 1
  19   11   19 1
  20   11   20 1

#	End of record

