#	Name: ASD05720265
#	Creating user name:	WinNT
#	Creation time:	15. 06. 2019 21:02

#	Modifying user name:	WinNT
#	Modification time:	15. 06. 2019 21:02

#	Program:	/corina/corina34_cracker 3.40 0067  02.08.2006

@<TRIPOS>MOLECULE
ASD05720265
  87   90    0    0    0
SMALL
NO_CHARGES


@<TRIPOS>ATOM
   1 C1             0.5119     1.0237     1.1164 C.2     
   2 N2             0.4122    -0.2391     0.6808 N.am    
   3 C3             1.6580    -0.6134    -0.0049 C.3     
   4 C4             2.5297     0.6535     0.0955 C.3     
   5 N5             1.6824     1.6071     0.8270 N.am    
   6 O6            -0.3811     1.5906     1.7157 O.2     
   7 C7             2.0587     2.9775     1.1828 C.3     
   8 C8             2.7352     2.9807     2.5551 C.3     
   9 N9             3.1125     4.3548     2.9118 N.3     
  10 C10            3.5483     4.4350     4.3181 C.3     
  11 C11            4.9746     5.0242     4.3219 C.3     
  12 C12            5.0473     5.7722     2.9648 C.3     
  13 C13            4.2102     4.8435     2.0503 C.3     
  14 O14            5.1421     5.9348     5.4104 O.3     
  15 C15            6.4791     6.0033     5.9104 C.3     
  16 C16            1.3817    -0.9606    -1.4691 C.3     
  17 C17            0.5224    -2.2245    -1.5401 C.3     
  18 C18            0.6397     0.1988    -2.1369 C.3     
  19 C19           -1.6778    -3.1433     0.6617 C.2     
  20 N20           -0.6243    -2.3357     0.5053 N.2     
  21 C21           -0.6921    -1.0636     0.8499 C.2     
  22 C22           -1.8851    -0.5415     1.3900 C.2     
  23 C23           -2.9530    -1.3558     1.5497 C.2     
  24 N24           -2.8523    -2.6692     1.1834 N.pl3   
  25 N25           -3.7636    -3.7303     1.2267 N.2     
  26 C26           -3.1914    -4.8116     0.7573 C.2     
  27 C27           -1.8788    -4.5014     0.3811 C.2     
  28 C28           -0.8882    -5.4341    -0.2016 C.ar    
  29 C29           -0.6489    -6.6680     0.4062 C.ar    
  30 C30            0.2725    -7.5353    -0.1368 C.ar    
  31 C31            0.9670    -7.1812    -1.2934 C.ar    
  32 C32            0.7285    -5.9487    -1.9011 C.ar    
  33 C33           -0.1968    -5.0827    -1.3625 C.ar    
  34 N34            3.4781    -9.0331    -3.1490 N.pl3   
  35 N35            2.6749    -7.8969    -2.9593 N.2     
  36 C36            1.9599    -8.1156    -1.8770 C.2     
  37 N37            2.2776    -9.3227    -1.3893 N.2     
  38 C38            3.1866    -9.8797    -2.1451 C.2     
  39 H39            2.1383    -1.4495     0.5036 H       
  40 H40            3.4427     0.4464     0.6537 H       
  41 H41            2.7656     1.0352    -0.8979 H       
  42 H42            2.7493     3.3700     0.4364 H       
  43 H43            1.1662     3.6023     1.2162 H       
  44 H44            2.0446     2.5881     3.3015 H       
  45 H45            3.6277     2.3559     2.5217 H       
  46 H46            2.8767     5.0859     4.8779 H       
  47 H47            3.5573     3.4390     4.7608 H       
  48 H48            5.7196     4.2297     4.3645 H       
  49 H49            4.5930     6.7603     3.0387 H       
  50 H50            6.0764     5.8428     2.6125 H       
  51 H51            4.8172     4.0090     1.6993 H       
  52 H52            3.8090     5.4037     1.2057 H       
  53 H53            6.5228     6.7156     6.7342 H       
  54 H54            6.7854     5.0190     6.2644 H       
  55 H55            7.1487     6.3275     5.1138 H       
  56 H56            2.3257    -1.1336    -1.9859 H       
  57 H57           -0.4947    -1.9904    -1.2258 H       
  58 H58            0.5093    -2.5979    -2.5641 H       
  59 H59            0.9403    -2.9855    -0.8812 H       
  60 H60            0.4428    -0.0485    -3.1801 H       
  61 H61           -0.3043     0.3718    -1.6201 H       
  62 H62            1.2519     1.0992    -2.0863 H       
  63 H63           -1.9455     0.4988     1.6739 H       
  64 H64           -3.8748    -0.9730     1.9622 H       
  65 H65           -3.6570    -5.7823     0.6714 H       
  66 H66           -1.1861    -6.9420     1.3021 H       
  67 H67            0.4577    -8.4899     0.3333 H       
  68 H68            1.2666    -5.6751    -2.7966 H       
  69 H69           -0.3844    -4.1301    -1.8354 H       
  70 H70            4.1151    -9.1803    -3.8656 H       
  71 H71            3.6281   -10.8531    -1.9903 H       
  72 C72           13.3201    13.7485    12.8811 C.2     
  73 C73           13.3406    12.2417    12.8728 C.3     
  74 O74           14.3582    14.3668    12.8745 O.2     
  75 O75           12.1487    14.4038    12.8902 O.3     
  76 F76           14.6657    11.7933    12.8577 F       
  77 F77           12.6984    11.7603    14.0187 F       
  78 F78           12.6766    11.7725    11.7342 F       
  79 H79           12.1862    15.3700    12.8952 H       
  80 C80           20.8371    22.3583    20.1655 C.2     
  81 C81           20.8576    20.8514    20.1572 C.3     
  82 O82           21.8752    22.9766    20.1589 O.2     
  83 O83           19.6657    23.0135    20.1746 O.3     
  84 F84           22.1827    20.4031    20.1421 F       
  85 F85           20.2154    20.3700    21.3031 F       
  86 F86           20.1936    20.3823    19.0187 F       
  87 H87           19.7032    23.9798    20.1797 H       
@<TRIPOS>BOND
   1    1    2 am
   2    1    5 am
   3    1    6 2
   4    2    3 1
   5    2   21 1
   6    3    4 1
   7    3   16 1
   8    3   39 1
   9    4    5 1
  10    4   40 1
  11    4   41 1
  12    5    7 1
  13    7    8 1
  14    7   42 1
  15    7   43 1
  16    8    9 1
  17    8   44 1
  18    8   45 1
  19    9   10 1
  20    9   13 1
  21   10   11 1
  22   10   46 1
  23   10   47 1
  24   11   12 1
  25   11   14 1
  26   11   48 1
  27   12   13 1
  28   12   49 1
  29   12   50 1
  30   13   51 1
  31   13   52 1
  32   14   15 1
  33   15   53 1
  34   15   54 1
  35   15   55 1
  36   16   17 1
  37   16   18 1
  38   16   56 1
  39   17   57 1
  40   17   58 1
  41   17   59 1
  42   18   60 1
  43   18   61 1
  44   18   62 1
  45   19   20 1
  46   19   24 1
  47   19   27 2
  48   20   21 2
  49   21   22 1
  50   22   23 2
  51   22   63 1
  52   23   24 1
  53   23   64 1
  54   24   25 1
  55   25   26 2
  56   26   27 1
  57   26   65 1
  58   27   28 1
  59   28   29 ar
  60   28   33 ar
  61   29   30 ar
  62   29   66 1
  63   30   31 ar
  64   30   67 1
  65   31   32 ar
  66   31   36 1
  67   32   33 ar
  68   32   68 1
  69   33   69 1
  70   34   35 1
  71   34   38 1
  72   34   70 1
  73   35   36 2
  74   36   37 1
  75   37   38 2
  76   38   71 1
  77   72   73 1
  78   72   74 2
  79   72   75 1
  80   73   76 1
  81   73   77 1
  82   73   78 1
  83   75   79 1
  84   80   81 1
  85   80   82 2
  86   80   83 1
  87   81   84 1
  88   81   85 1
  89   81   86 1
  90   83   87 1

#	End of record

