#	Name: ASD03740202
#	Creating user name:	WinNT
#	Creation time:	15. 06. 2019 20:46

#	Modifying user name:	WinNT
#	Modification time:	15. 06. 2019 20:46

#	Program:	/corina/corina34_cracker 3.40 0067  02.08.2006

@<TRIPOS>MOLECULE
ASD03740202
  46   47    0    0    0
SMALL
NO_CHARGES


@<TRIPOS>ATOM
   1 Cl1           -1.1334    -5.3222     0.0507 Cl      
   2 C2             0.6395     2.6261    -0.6975 C.3     
   3 C3             0.2770     1.2002    -0.2779 C.3     
   4 C4             0.7172     0.2204    -1.3675 C.3     
   5 N5             2.1823     0.2320    -1.4735 N.3     
   6 C6             2.6318    -0.5404    -2.6394 C.3     
   7 C7             1.9118    -0.0380    -3.8925 C.3     
   8 C8             4.1418    -0.3670    -2.8147 C.3     
   9 C9             4.8574    -0.9730    -1.6350 C.2     
  10 O10            4.2222    -1.4925    -0.7420 O.2     
  11 N11            6.2032    -0.9377    -1.5724 N.am    
  12 C12            0.2501    -1.1679    -1.0131 C.ar    
  13 C13            1.1000    -2.0348    -0.3517 C.ar    
  14 C14            0.6751    -3.3093    -0.0250 C.ar    
  15 C15           -0.6018    -3.7212    -0.3593 C.ar    
  16 C16           -1.4579    -2.8538    -1.0233 C.ar    
  17 O17           -2.7142    -3.2561    -1.3528 O.3     
  18 C18           -3.7098    -3.0392    -0.4539 C.ar    
  19 C19           -5.0080    -3.4327    -0.7462 C.ar    
  20 C20           -6.0181    -3.2115     0.1696 C.ar    
  21 C21           -5.7368    -2.5982     1.3765 C.ar    
  22 C22           -4.4440    -2.2052     1.6703 C.ar    
  23 C23           -3.4291    -2.4292     0.7604 C.ar    
  24 C24           -1.0308    -1.5720    -1.3450 C.ar    
  25 F25           -1.8632    -0.7227    -1.9861 F       
  26 H26            1.7238     2.7248    -0.7503 H       
  27 H27            0.2074     2.8381    -1.6755 H       
  28 H28            0.2457     3.3314     0.0343 H       
  29 H29            0.7833     0.9564     0.6561 H       
  30 H30           -0.8013     1.1260    -0.1366 H       
  31 H31            0.2815     0.5180    -2.3212 H       
  32 H32            2.4025    -1.5951    -2.4869 H       
  33 H33            2.0307     1.0427    -3.9711 H       
  34 H34            2.3401    -0.5156    -4.7737 H       
  35 H35            0.8519    -0.2830    -3.8253 H       
  36 H36            4.4612    -0.8667    -3.7293 H       
  37 H37            4.3806     0.6946    -2.8784 H       
  38 H38            6.7112    -0.5222    -2.2867 H       
  39 H39            6.6638    -1.3278    -0.8131 H       
  40 H40            2.0982    -1.7159    -0.0900 H       
  41 H41            1.3415    -3.9841     0.4917 H       
  42 H42           -5.2284    -3.9111    -1.6890 H       
  43 H43           -7.0287    -3.5175    -0.0574 H       
  44 H44           -6.5281    -2.4256     2.0909 H       
  45 H45           -4.2270    -1.7261     2.6136 H       
  46 H46           -2.4187    -2.1261     0.9922 H       
@<TRIPOS>BOND
   1    1   15 1
   2    2    3 1
   3    2   26 1
   4    2   27 1
   5    2   28 1
   6    3    4 1
   7    3   29 1
   8    3   30 1
   9    4    5 1
  10    4   12 1
  11    4   31 1
  12    5    6 1
  13    6    7 1
  14    6    8 1
  15    6   32 1
  16    7   33 1
  17    7   34 1
  18    7   35 1
  19    8    9 1
  20    8   36 1
  21    8   37 1
  22    9   10 2
  23    9   11 am
  24   11   38 1
  25   11   39 1
  26   12   13 ar
  27   12   24 ar
  28   13   14 ar
  29   13   40 1
  30   14   15 ar
  31   14   41 1
  32   15   16 ar
  33   16   17 1
  34   16   24 ar
  35   17   18 1
  36   18   19 ar
  37   18   23 ar
  38   19   20 ar
  39   19   42 1
  40   20   21 ar
  41   20   43 1
  42   21   22 ar
  43   21   44 1
  44   22   23 ar
  45   22   45 1
  46   23   46 1
  47   24   25 1

#	End of record

