#	Name: ASD01812560
#	Creating user name:	WinNT
#	Creation time:	15. 06. 2019 19:28

#	Modifying user name:	WinNT
#	Modification time:	15. 06. 2019 19:28

#	Program:	/corina/corina34_cracker 3.40 0067  02.08.2006

@<TRIPOS>MOLECULE
ASD01812560
  76   82    0    0    0
SMALL
NO_CHARGES


@<TRIPOS>ATOM
   1 C1            -0.0164     1.3602     0.0095 C.ar    
   2 C2             0.0021    -0.0041     0.0020 C.ar    
   3 C3             1.2063    -0.7004    -0.0132 C.ar    
   4 C4             2.3984    -0.0395    -0.0206 C.ar    
   5 C5             2.4169     1.3636    -0.0133 C.ar    
   6 C6             1.1890     2.0693     0.0018 C.ar    
   7 C7             3.6356     2.0739    -0.0206 C.ar    
   8 C8             3.6571     3.4281    -0.0131 C.ar    
   9 C9             2.4690     4.1752     0.0023 C.ar    
  10 C10            1.2194     3.5290     0.0099 C.ar    
  11 N11            0.0957     4.2654     0.0250 N.2     
  12 C12            0.1301     5.5661     0.0325 C.2     
  13 N13            1.2853     6.2770     0.0253 N.am    
  14 C14            2.4811     5.6437     0.0111 C.2     
  15 C15            4.9362     1.3128    -0.0367 C.3     
  16 C16            5.2942     0.9599    -1.4574 C.ar    
  17 O17            3.5270     6.2675     0.0053 O.2     
  18 C18            1.2380     7.7413     0.0341 C.3     
  19 C19            0.5129     8.2206     1.2932 C.3     
  20 C20            0.4635     9.7497     1.3024 C.3     
  21 C21           -0.2859    10.2433     0.0632 C.3     
  22 C22            0.4392     9.7640    -1.1959 C.3     
  23 C23            0.4886     8.2348    -1.2051 C.3     
  24 O24            1.2128     7.7596     2.4506 O.3     
  25 C25            6.0624     1.8264    -2.2221 C.ar    
  26 C26            6.3696     1.4649    -3.5222 C.ar    
  27 C27            5.8995     0.2496    -4.0161 C.ar    
  28 N28            5.1670    -0.5507    -3.2519 N.ar    
  29 C29            4.8651    -0.2330    -2.0093 C.ar    
  30 C30            6.2198    -0.1523    -5.4068 C.ar    
  31 C31            7.0715     0.6249    -6.1878 C.ar    
  32 N32            7.3595     0.2716    -7.4240 N.ar    
  33 C33            6.8568    -0.8256    -7.9707 C.ar    
  34 C34            5.9977    -1.6524    -7.2519 C.ar    
  35 C35            5.6749    -1.3213    -5.9510 C.ar    
  36 N36            7.1908    -1.1549    -9.2774 N.3     
  37 C37            8.1026    -0.1588    -9.8545 C.3     
  38 C38            8.5629    -0.6271   -11.2369 C.3     
  39 C39            7.3409    -0.8121   -12.1408 C.3     
  40 C40            6.3847    -1.8178   -11.4936 C.3     
  41 C41            5.9875    -1.3150   -10.1038 C.3     
  42 H42           -0.9575     1.8900     0.0169 H       
  43 H43           -0.9297    -0.5501     0.0083 H       
  44 H44            1.1965    -1.7803    -0.0189 H       
  45 H45            3.3252    -0.5937    -0.0317 H       
  46 H46            4.6065     3.9428    -0.0187 H       
  47 H47           -0.8056     6.1053     0.0447 H       
  48 H48            5.7242     1.9308     0.3937 H       
  49 H49            4.8300     0.3996     0.5488 H       
  50 H50            2.2534     8.1376     0.0265 H       
  51 H51           -0.5025     7.8242     1.3008 H       
  52 H52           -0.0531    10.0912     2.1994 H       
  53 H53            1.4789    10.1461     1.2948 H       
  54 H54           -1.3013     9.8469     0.0708 H       
  55 H55           -0.3211    11.3327     0.0697 H       
  56 H56           -0.0947    10.1156    -2.0788 H       
  57 H57            1.4545    10.1603    -1.2035 H       
  58 H58            1.0052     7.8933    -2.1021 H       
  59 H59           -0.5268     7.8384    -1.1975 H       
  60 H60            0.8084     8.0270     3.2873 H       
  61 H61            6.4124     2.7622    -1.8119 H       
  62 H62            6.9651     2.1157    -4.1454 H       
  63 H63            4.2706    -0.9114    -1.4154 H       
  64 H64            7.5000     1.5266    -5.7760 H       
  65 H65            5.5920    -2.5449    -7.7052 H       
  66 H66            5.0145    -1.9467    -5.3687 H       
  67 H67            7.5852     0.7960    -9.9481 H       
  68 H68            8.9692    -0.0399    -9.2042 H       
  69 H69            9.2272     0.1198   -11.6715 H       
  70 H70            9.0924    -1.5751   -11.1423 H       
  71 H71            6.8330     0.1441   -12.2670 H       
  72 H72            7.6604    -1.1870   -13.1131 H       
  73 H73            5.4928    -1.9216   -12.1116 H       
  74 H74            6.8800    -2.7845   -11.4030 H       
  75 H75            5.3180    -2.0358    -9.6345 H       
  76 H76            5.4800    -0.3548   -10.1962 H       
@<TRIPOS>BOND
   1    1    2 ar
   2    1    6 ar
   3    1   42 1
   4    2    3 ar
   5    2   43 1
   6    3    4 ar
   7    3   44 1
   8    4    5 ar
   9    4   45 1
  10    5    7 ar
  11    5    6 ar
  12    6   10 ar
  13    7   15 1
  14    7    8 ar
  15    8    9 ar
  16    8   46 1
  17    9   14 1
  18    9   10 ar
  19   10   11 1
  20   11   12 2
  21   12   13 1
  22   12   47 1
  23   13   14 am
  24   13   18 1
  25   14   17 2
  26   15   16 1
  27   15   48 1
  28   15   49 1
  29   16   25 ar
  30   16   29 ar
  31   18   19 1
  32   18   23 1
  33   18   50 1
  34   19   20 1
  35   19   24 1
  36   19   51 1
  37   20   21 1
  38   20   52 1
  39   20   53 1
  40   21   22 1
  41   21   54 1
  42   21   55 1
  43   22   23 1
  44   22   56 1
  45   22   57 1
  46   23   58 1
  47   23   59 1
  48   24   60 1
  49   25   26 ar
  50   25   61 1
  51   26   27 ar
  52   26   62 1
  53   27   28 ar
  54   27   30 1
  55   28   29 ar
  56   29   63 1
  57   30   31 ar
  58   30   35 ar
  59   31   32 ar
  60   31   64 1
  61   32   33 ar
  62   33   34 ar
  63   33   36 1
  64   34   35 ar
  65   34   65 1
  66   35   66 1
  67   36   37 1
  68   36   41 1
  69   37   38 1
  70   37   67 1
  71   37   68 1
  72   38   39 1
  73   38   69 1
  74   38   70 1
  75   39   40 1
  76   39   71 1
  77   39   72 1
  78   40   41 1
  79   40   73 1
  80   40   74 1
  81   41   75 1
  82   41   76 1

#	End of record

