#	Name: ASD03730231
#	Creating user name:	WinNT
#	Creation time:	15. 06. 2019 20:44

#	Modifying user name:	WinNT
#	Modification time:	15. 06. 2019 20:44

#	Program:	/corina/corina34_cracker 3.40 0067  02.08.2006

@<TRIPOS>MOLECULE
ASD03730231
  66   73    0    0    0
SMALL
NO_CHARGES


@<TRIPOS>ATOM
   1 O1            -0.1596     1.3530     0.3312 O.3     
   2 C2            -0.1290    -0.0864     0.3451 C.3     
   3 O3             1.0779    -0.4102    -0.3699 O.3     
   4 C4             1.9074     0.6597    -0.1897 C.ar    
   5 C5             1.1456     1.7440     0.2398 C.ar    
   6 C6             3.2734     0.7977    -0.3588 C.ar    
   7 C7             3.8956     2.0162    -0.1046 C.ar    
   8 C8             3.1229     3.0950     0.3148 C.ar    
   9 C9             1.7616     2.9587     0.4901 C.ar    
  10 O10            5.2138     2.3562    -0.1894 O.3     
  11 C11            4.0633     4.2594     0.4751 C.3     
  12 C12            5.3312     3.7907    -0.2519 C.3     
  13 N13            3.4769     6.4318     0.8733 N.am    
  14 C14            3.5113     5.5223    -0.1211 C.2     
  15 C15            4.3313     4.5838     1.9146 C.ar    
  16 C16            4.8384     3.8573     2.9837 C.ar    
  17 C17            4.9687     4.4626     4.2337 C.ar    
  18 C18            4.5917     5.7807     4.3981 C.ar    
  19 C19            4.0879     6.5022     3.3349 C.ar    
  20 C20            3.9524     5.9112     2.0797 C.ar    
  21 O21            3.1649     5.6909    -1.2711 O.2     
  22 C22            2.9968     7.8061     0.7083 C.3     
  23 C23            1.4947     7.8593     0.9943 C.3     
  24 C24            0.9934     9.2946     0.8220 C.3     
  25 C25           -0.5087     9.3478     1.1079 C.3     
  26 C26           -1.0101    10.7830     0.9356 C.3     
  27 C27            6.6063     2.1062     2.6880 C.ar    
  28 C28            6.9737     0.7807     2.5144 C.ar    
  29 C29            8.4348     0.6006     2.4244 C.ar    
  30 C30            9.1310     1.7962     2.5327 C.ar    
  31 S31            8.0230     3.1427     2.7436 S.3     
  32 C32            5.9729    -0.2082     2.4452 C.ar    
  33 C33            4.6447     0.1310     2.5482 C.ar    
  34 C34            4.2713     1.4520     2.7207 C.ar    
  35 C35            5.2400     2.4420     2.7973 C.ar    
  36 C36           10.5300     1.7922     2.4664 C.ar    
  37 C37           11.2152     0.6120     2.2949 C.ar    
  38 C38           10.5236    -0.5846     2.1862 C.ar    
  39 C39            9.1514    -0.5985     2.2487 C.ar    
  40 H40           -0.0794    -0.4585     1.3685 H       
  41 H41           -0.9997    -0.4930    -0.1694 H       
  42 H42            3.8609    -0.0459    -0.6898 H       
  43 H43            1.1745     3.8017     0.8233 H       
  44 H44            6.2253     4.1291     0.2718 H       
  45 H45            5.3338     4.1343    -1.2863 H       
  46 H46            5.3622     3.9028     5.0692 H       
  47 H47            4.6914     6.2502     5.3655 H       
  48 H48            3.7965     7.5324     3.4764 H       
  49 H49            3.5225     8.4605     1.4037 H       
  50 H50            3.1841     8.1362    -0.3135 H       
  51 H51            0.9691     7.2049     0.2989 H       
  52 H52            1.3074     7.5292     2.0161 H       
  53 H53            1.5190     9.9490     1.5173 H       
  54 H54            1.1806     9.6246    -0.1998 H       
  55 H55           -1.0344     8.6934     0.4126 H       
  56 H56           -0.6960     9.0177     2.1297 H       
  57 H57           -0.4844    11.4375     1.6310 H       
  58 H58           -0.8228    11.1131    -0.0862 H       
  59 H59           -2.0802    10.8210     1.1393 H       
  60 H60            6.2518    -1.2428     2.3097 H       
  61 H61            3.8884    -0.6380     2.4931 H       
  62 H62            3.2260     1.7117     2.8009 H       
  63 H63           11.0741     2.7214     2.5501 H       
  64 H64           12.2940     0.6175     2.2444 H       
  65 H65           11.0656    -1.5090     2.0516 H       
  66 H66            8.6194    -1.5345     2.1633 H       
@<TRIPOS>BOND
   1    1    2 1
   2    1    5 1
   3    2    3 1
   4    2   40 1
   5    2   41 1
   6    3    4 1
   7    4    5 ar
   8    4    6 ar
   9    5    9 ar
  10    6    7 ar
  11    6   42 1
  12    7    8 ar
  13    7   10 1
  14    8    9 ar
  15    8   11 1
  16    9   43 1
  17   10   12 1
  18   11   12 1
  19   11   14 1
  20   11   15 1
  21   12   44 1
  22   12   45 1
  23   13   14 am
  24   13   20 1
  25   13   22 1
  26   14   21 2
  27   15   16 ar
  28   15   20 ar
  29   16   17 ar
  30   16   35 1
  31   17   18 ar
  32   17   46 1
  33   18   19 ar
  34   18   47 1
  35   19   20 ar
  36   19   48 1
  37   22   23 1
  38   22   49 1
  39   22   50 1
  40   23   24 1
  41   23   51 1
  42   23   52 1
  43   24   25 1
  44   24   53 1
  45   24   54 1
  46   25   26 1
  47   25   55 1
  48   25   56 1
  49   26   57 1
  50   26   58 1
  51   26   59 1
  52   27   28 ar
  53   27   31 1
  54   27   35 ar
  55   28   29 1
  56   28   32 ar
  57   29   30 ar
  58   29   39 ar
  59   30   31 1
  60   30   36 ar
  61   32   33 ar
  62   32   60 1
  63   33   34 ar
  64   33   61 1
  65   34   35 ar
  66   34   62 1
  67   36   37 ar
  68   36   63 1
  69   37   38 ar
  70   37   64 1
  71   38   39 ar
  72   38   65 1
  73   39   66 1

#	End of record

