#	Name: ASD01840227
#	Creating user name:	WinNT
#	Creation time:	15. 06. 2019 19:37

#	Modifying user name:	WinNT
#	Modification time:	15. 06. 2019 19:37

#	Program:	/corina/corina34_cracker 3.40 0067  02.08.2006

@<TRIPOS>MOLECULE
ASD01840227
  58   60    0    0    0
SMALL
NO_CHARGES


@<TRIPOS>ATOM
   1 C1            -0.8844     1.4600     0.2252 C.3     
   2 C2            -0.7652    -0.0419     0.1922 C.ar    
   3 C3            -1.1609    -0.7440    -0.9076 C.ar    
   4 C4            -1.0414    -2.1332    -0.9161 C.ar    
   5 O5            -1.4346    -2.8309    -2.0101 O.3     
   6 C6            -1.2883    -4.2515    -1.9608 C.3     
   7 C7            -1.7808    -4.8609    -3.2749 C.3     
   8 C8            -1.6242    -6.3820    -3.2220 C.3     
   9 N9            -2.0971    -6.9671    -4.4838 N.3     
  10 C10           -1.2319    -6.5717    -5.6047 C.3     
  11 C11           -1.7935    -7.1526    -6.9052 C.3     
  12 O12           -1.9015    -8.5731    -6.7794 O.3     
  13 C13           -2.7374    -8.9934    -5.6978 C.3     
  14 C14           -2.1854    -8.4312    -4.3851 C.3     
  15 N15           -0.5518    -2.7774     0.1229 N.ar    
  16 C16           -0.1488    -2.1394     1.2267 C.ar    
  17 S17            0.5289    -2.7828     2.7176 S.3     
  18 C18            0.6827    -1.1876     3.4265 C.2     
  19 C19            1.1989    -0.9315     4.7199 C.2     
  20 O20            1.2695     0.2126     5.1318 O.2     
  21 N21            1.6121    -1.9536     5.4952 N.am    
  22 C22            2.1461    -1.6885     6.8334 C.3     
  23 C23            1.0792    -0.9908     7.6793 C.3     
  24 C24            2.5391    -3.0101     7.4966 C.3     
  25 C25            3.3779    -0.7878     6.7217 C.3     
  26 C26            0.2421    -0.2305     2.5718 C.2     
  27 N27            0.2524     1.1221     2.8825 N.pl3   
  28 C28           -0.2352    -0.7456     1.3003 C.ar    
  29 H29            0.0683     1.9065    -0.0593 H       
  30 H30           -1.6580     1.7785    -0.4735 H       
  31 H31           -1.1499     1.7813     1.2324 H       
  32 H32           -1.5643    -0.2277    -1.7661 H       
  33 H33           -0.2380    -4.5038    -1.8144 H       
  34 H34           -1.8761    -4.6488    -1.1332 H       
  35 H35           -2.8311    -4.6087    -3.4212 H       
  36 H36           -1.1930    -4.4637    -4.1024 H       
  37 H37           -0.5739    -6.6342    -3.0757 H       
  38 H38           -2.2120    -6.7792    -2.3945 H       
  39 H39           -1.2014    -5.4844    -5.6751 H       
  40 H40           -0.2249    -6.9549    -5.4400 H       
  41 H41           -2.7788    -6.7283    -7.0977 H       
  42 H42           -1.1244    -6.9101    -7.7309 H       
  43 H43           -3.7502    -8.6226    -5.8552 H       
  44 H44           -2.7510   -10.0823    -5.6502 H       
  45 H45           -1.1936    -8.8441    -4.2008 H       
  46 H46           -2.8508    -8.7013    -3.5651 H       
  47 H47            1.5558    -2.8647     5.1671 H       
  48 H48            0.2016    -1.6324     7.7589 H       
  49 H49            1.4765    -0.7936     8.6750 H       
  50 H50            0.7992    -0.0493     7.2068 H       
  51 H51            3.2993    -3.5072     6.8939 H       
  52 H52            2.9365    -2.8129     8.4923 H       
  53 H53            1.6616    -3.6517     7.5762 H       
  54 H54            3.0979     0.1537     6.2492 H       
  55 H55            3.7753    -0.5906     7.7173 H       
  56 H56            4.1380    -1.2849     6.1190 H       
  57 H57            0.2605     1.4066     3.8098 H       
  58 H58            0.2515     1.7828     2.1724 H       
@<TRIPOS>BOND
   1    1    2 1
   2    1   29 1
   3    1   30 1
   4    1   31 1
   5    2   28 ar
   6    2    3 ar
   7    3    4 ar
   8    3   32 1
   9    4    5 1
  10    4   15 ar
  11    5    6 1
  12    6    7 1
  13    6   33 1
  14    6   34 1
  15    7    8 1
  16    7   35 1
  17    7   36 1
  18    8    9 1
  19    8   37 1
  20    8   38 1
  21    9   14 1
  22    9   10 1
  23   10   11 1
  24   10   39 1
  25   10   40 1
  26   11   12 1
  27   11   41 1
  28   11   42 1
  29   12   13 1
  30   13   14 1
  31   13   43 1
  32   13   44 1
  33   14   45 1
  34   14   46 1
  35   15   16 ar
  36   16   28 ar
  37   16   17 1
  38   17   18 1
  39   18   19 1
  40   18   26 2
  41   19   20 2
  42   19   21 am
  43   21   22 1
  44   21   47 1
  45   22   23 1
  46   22   24 1
  47   22   25 1
  48   23   48 1
  49   23   49 1
  50   23   50 1
  51   24   51 1
  52   24   52 1
  53   24   53 1
  54   25   54 1
  55   25   55 1
  56   25   56 1
  57   26   27 1
  58   26   28 1
  59   27   57 1
  60   27   58 1

#	End of record

