#	Name: ASD02560161
#	Creating user name:	WinNT
#	Creation time:	15. 06. 2019 20:24

#	Modifying user name:	WinNT
#	Modification time:	15. 06. 2019 20:24

#	Program:	/corina/corina34_cracker 3.40 0067  02.08.2006

@<TRIPOS>MOLECULE
ASD02560161
  65   69    0    0    0
SMALL
NO_CHARGES


@<TRIPOS>ATOM
   1 N1            -0.1957     1.0632     0.0956 N.2     
   2 N2            -0.0644    -0.1641     0.0577 N.2     
   3 C3             1.0961     1.7412    -0.0739 C.3     
   4 N4             2.1120     0.6863     0.1707 N.3     
   5 C5             1.3402    -0.5423    -0.1445 C.3     
   6 S6             1.8016    -1.8851     0.9844 S.3     
   7 C7             1.3814    -1.2100     2.6149 C.3     
   8 C8             1.7120    -2.2246     3.6790 C.2     
   9 O9             2.1845    -3.2976     3.3682 O.2     
  10 N10            1.4825    -1.9398     4.9762 N.am    
  11 C11            3.1973     0.8290    -0.6911 C.ar    
  12 C12            1.6968    -2.9164     5.9558 C.ar    
  13 C13            0.8761    -2.9710     7.0762 C.ar    
  14 C14            1.0904    -3.9369     8.0409 C.ar    
  15 C15            2.1201    -4.8482     7.8920 C.ar    
  16 C16            2.9379    -4.7960     6.7785 C.ar    
  17 C17            2.7258    -3.8362     5.8076 C.ar    
  18 Cl18          -0.4161    -1.8270     7.2637 Cl      
  19 S19            2.3907    -6.0780     9.1245 S.o2    
  20 O20            3.7521    -6.4685     9.0096 O.2     
  21 O21            1.8259    -5.5725    10.3265 O.2     
  22 C22            4.1350     1.8646    -0.4900 C.ar    
  23 C23            3.3684    -0.0437    -1.7448 C.ar    
  24 C24            4.4492     0.0899    -2.6109 C.ar    
  25 C25            5.3661     1.0826    -2.4431 C.ar    
  26 C26            5.2311     1.9901    -1.3789 C.ar    
  27 C27            6.1620     3.0248    -1.1818 C.ar    
  28 C28            6.0007     3.8867    -0.1408 C.ar    
  29 C29            4.9246     3.7597     0.7353 C.ar    
  30 C30            4.0017     2.7718     0.5726 C.ar    
  31 N31            1.4877    -7.4007     8.7036 N.am    
  32 C32            6.5278     1.2047    -3.3952 C.3     
  33 C33            7.3015    -0.1240    -3.4559 C.3     
  34 C34            7.2307    -0.6088    -4.9187 C.3     
  35 C35            6.9786     0.6830    -5.7352 C.3     
  36 C36            6.0139     1.4810    -4.8233 C.3     
  37 C37            1.2280     2.2883    -1.4966 C.3     
  38 F38            0.1211     3.0912    -1.7920 F       
  39 F39            2.3969     3.0504    -1.5966 F       
  40 H40            1.2011     2.5454     0.6543 H       
  41 H41            1.5078    -0.8408    -1.1793 H       
  42 H42            1.9549    -0.2998     2.7900 H       
  43 H43            0.3164    -0.9808     2.6497 H       
  44 H44            1.1688    -1.0579     5.2310 H       
  45 H45            0.4536    -3.9801     8.9121 H       
  46 H46            3.7413    -5.5089     6.6656 H       
  47 H47            3.3653    -3.7964     4.9382 H       
  48 H48            2.6556    -0.8402    -1.8994 H       
  49 H49            4.5629    -0.6054    -3.4294 H       
  50 H50            7.0011     3.1351    -1.8527 H       
  51 H51            6.7176     4.6806     0.0086 H       
  52 H52            4.8194     4.4567     1.5535 H       
  53 H53            3.1727     2.6853     1.2593 H       
  54 H54            1.7868    -8.2902     8.9491 H       
  55 H55            0.6596    -7.2861     8.2116 H       
  56 H56            7.1905     2.0083    -3.0741 H       
  57 H57            8.3399     0.0350    -3.1651 H       
  58 H58            6.8367    -0.8571    -2.7967 H       
  59 H59            8.1736    -1.0689    -5.2141 H       
  60 H60            6.4059    -1.3094    -5.0489 H       
  61 H61            7.9083     1.2313    -5.8875 H       
  62 H62            6.5051     0.4509    -6.6891 H       
  63 H63            4.9926     1.1178    -4.9381 H       
  64 H64            6.0687     2.5459    -5.0491 H       
  65 H65            1.2737     1.4587    -2.2021 H       
@<TRIPOS>BOND
   1    1    2 2
   2    1    3 1
   3    2    5 1
   4    3    4 1
   5    3   37 1
   6    3   40 1
   7    4    5 1
   8    4   11 1
   9    5    6 1
  10    5   41 1
  11    6    7 1
  12    7    8 1
  13    7   42 1
  14    7   43 1
  15    8    9 2
  16    8   10 am
  17   10   12 1
  18   10   44 1
  19   11   22 ar
  20   11   23 ar
  21   12   13 ar
  22   12   17 ar
  23   13   14 ar
  24   13   18 1
  25   14   15 ar
  26   14   45 1
  27   15   16 ar
  28   15   19 1
  29   16   17 ar
  30   16   46 1
  31   17   47 1
  32   19   20 2
  33   19   21 2
  34   19   31 am
  35   22   26 ar
  36   22   30 ar
  37   23   24 ar
  38   23   48 1
  39   24   25 ar
  40   24   49 1
  41   25   26 ar
  42   25   32 1
  43   26   27 ar
  44   27   28 ar
  45   27   50 1
  46   28   29 ar
  47   28   51 1
  48   29   30 ar
  49   29   52 1
  50   30   53 1
  51   31   54 1
  52   31   55 1
  53   32   33 1
  54   32   36 1
  55   32   56 1
  56   33   34 1
  57   33   57 1
  58   33   58 1
  59   34   35 1
  60   34   59 1
  61   34   60 1
  62   35   36 1
  63   35   61 1
  64   35   62 1
  65   36   63 1
  66   36   64 1
  67   37   38 1
  68   37   39 1
  69   37   65 1

#	End of record

