#	Name: ASD01870402
#	Creating user name:	WinNT
#	Creation time:	15. 06. 2019 19:39

#	Modifying user name:	WinNT
#	Modification time:	15. 06. 2019 19:39

#	Program:	/corina/corina34_cracker 3.40 0067  02.08.2006

@<TRIPOS>MOLECULE
ASD01870402
  38   40    0    0    0
SMALL
NO_CHARGES


@<TRIPOS>ATOM
   1 C1            -0.0184     1.5028     0.0103 C.3     
   2 C2             0.2607     0.1195     0.5391 C.2     
   3 N3             0.7661    -0.0390     1.7784 N.am    
   4 O4             0.0305    -0.8512    -0.1506 O.2     
   5 C5             1.0228    -1.3117     2.2649 C.2     
   6 O6             0.8129    -2.4601     1.6032 O.3     
   7 C7             1.1868    -3.4750     2.4114 C.2     
   8 C8             1.6210    -2.9309     3.5586 C.2     
   9 N9             1.5160    -1.5936     3.4449 N.2     
  10 C10            1.2609     2.2989    -0.0137 C.ar    
  11 C11            2.3899     1.7750    -0.6151 C.ar    
  12 C12           -1.7626     2.0354    -1.7041 C.ar    
  13 C13           -0.5747     1.4037    -1.3868 C.ar    
  14 C14           -2.2728     1.9447    -2.9856 C.ar    
  15 C15           -1.5952     1.2221    -3.9498 C.ar    
  16 C16           -0.4071     0.5908    -3.6326 C.ar    
  17 C17            0.1032     0.6816    -2.3511 C.ar    
  18 C18            3.5634     2.5053    -0.6371 C.ar    
  19 C19            3.6078     3.7598    -0.0580 C.ar    
  20 C20            2.4785     4.2841     0.5426 C.ar    
  21 C21            1.3038     3.5555     0.5608 C.ar    
  22 C22            2.1390    -3.6823     4.7577 C.3     
  23 H23           -0.7431     1.9991     0.6557 H       
  24 H24            0.9502     0.7374     2.3300 H       
  25 H25            1.1443    -4.5286     2.1780 H       
  26 H26            2.3553     0.7949    -1.0675 H       
  27 H27           -2.2943     2.5962    -0.9496 H       
  28 H28           -3.2011     2.4379    -3.2334 H       
  29 H29           -1.9942     1.1506    -4.9508 H       
  30 H30            0.1224     0.0263    -4.3859 H       
  31 H31            1.0313     0.1881    -2.1031 H       
  32 H32            4.4457     2.0957    -1.1063 H       
  33 H33            4.5248     4.3300    -0.0746 H       
  34 H34            2.5132     5.2640     0.9953 H       
  35 H35            0.4206     3.9667     1.0268 H       
  36 H36            3.2166    -3.8172     4.6643 H       
  37 H37            1.9209    -3.1163     5.6633 H       
  38 H38            1.6543    -4.6571     4.8129 H       
@<TRIPOS>BOND
   1    1    2 1
   2    1   10 1
   3    1   13 1
   4    1   23 1
   5    2    3 am
   6    2    4 2
   7    3    5 1
   8    3   24 1
   9    5    6 1
  10    5    9 2
  11    6    7 1
  12    7    8 2
  13    7   25 1
  14    8    9 1
  15    8   22 1
  16   10   21 ar
  17   10   11 ar
  18   11   18 ar
  19   11   26 1
  20   12   14 ar
  21   12   13 ar
  22   12   27 1
  23   13   17 ar
  24   14   15 ar
  25   14   28 1
  26   15   16 ar
  27   15   29 1
  28   16   17 ar
  29   16   30 1
  30   17   31 1
  31   18   19 ar
  32   18   32 1
  33   19   20 ar
  34   19   33 1
  35   20   21 ar
  36   20   34 1
  37   21   35 1
  38   22   36 1
  39   22   37 1
  40   22   38 1

#	End of record

