#	Name: ASD01420204
#	Creating user name:	WinNT
#	Creation time:	15. 06. 2019 19:20

#	Modifying user name:	WinNT
#	Modification time:	15. 06. 2019 19:20

#	Program:	/corina/corina34_cracker 3.40 0067  02.08.2006

@<TRIPOS>MOLECULE
ASD01420204
  43   45    0    0    0
SMALL
NO_CHARGES


@<TRIPOS>ATOM
   1 C1            -0.0179     1.4673     0.0101 C.2     
   2 C2             0.0021    -0.0041     0.0020 C.ar    
   3 C3             1.2255    -0.6923    -0.0134 C.ar    
   4 C4             1.2354    -2.0762    -0.0209 C.ar    
   5 C5             0.0397    -2.7794    -0.0133 C.ar    
   6 C6            -1.1749    -2.0988     0.0015 C.ar    
   7 C7            -1.1981    -0.7229     0.0154 C.ar    
   8 O8             1.0263     2.0892     0.0035 O.2     
   9 O9            -1.1942     2.1253     0.0193 O.3     
  10 Br10          -2.7983    -3.0686     0.0111 Br      
  11 O11            0.0538    -4.1365    -0.0208 O.3     
  12 C12            1.3337    -4.7719    -0.0364 C.3     
  13 C13            1.1518    -6.2678    -0.0428 C.ar    
  14 C14            1.0569    -6.9475    -1.2428 C.ar    
  15 C15            0.8901    -8.3197    -1.2486 C.ar    
  16 C16            0.8184    -9.0123    -0.0544 C.ar    
  17 C17            0.9142    -8.3328     1.1455 C.ar    
  18 C18            1.0854    -6.9611     1.1513 C.ar    
  19 O19            2.3940    -0.0032    -0.0212 O.3     
  20 C20            3.5995    -0.7705    -0.0368 C.3     
  21 C21            4.7861     0.1585    -0.0436 C.ar    
  22 C22            5.3420     0.5784     1.1503 C.ar    
  23 C23            6.4304     1.4306     1.1441 C.ar    
  24 C24            6.9633     1.8624    -0.0562 C.ar    
  25 C25            6.4080     1.4417    -1.2501 C.ar    
  26 C26            5.3222     0.5861    -1.2439 C.ar    
  27 H27            2.1747    -2.6091    -0.0331 H       
  28 H28           -2.1420    -0.1984     0.0318 H       
  29 H29           -1.1567     3.0915     0.0243 H       
  30 H30            1.8791    -4.4684    -0.9300 H       
  31 H31            1.8961    -4.4780     0.8498 H       
  32 H32            1.1129    -6.4063    -2.1758 H       
  33 H33            0.8153    -8.8506    -2.1861 H       
  34 H34            0.6873   -10.0843    -0.0590 H       
  35 H35            0.8579    -8.8739     2.0785 H       
  36 H36            1.1639    -6.4306     2.0888 H       
  37 H37            3.6388    -1.4035     0.8496 H       
  38 H38            3.6215    -1.3945    -0.9302 H       
  39 H39            4.9257     0.2411     2.0880 H       
  40 H40            6.8643     1.7593     2.0769 H       
  41 H41            7.8132     2.5287    -0.0610 H       
  42 H42            6.8241     1.7793    -2.1878 H       
  43 H43            4.8907     0.2545    -2.1767 H       
@<TRIPOS>BOND
   1    1    2 1
   2    1    8 2
   3    1    9 1
   4    2    3 ar
   5    2    7 ar
   6    3    4 ar
   7    3   19 1
   8    4    5 ar
   9    4   27 1
  10    5    6 ar
  11    5   11 1
  12    6    7 ar
  13    6   10 1
  14    7   28 1
  15    9   29 1
  16   11   12 1
  17   12   13 1
  18   12   30 1
  19   12   31 1
  20   13   14 ar
  21   13   18 ar
  22   14   15 ar
  23   14   32 1
  24   15   16 ar
  25   15   33 1
  26   16   17 ar
  27   16   34 1
  28   17   18 ar
  29   17   35 1
  30   18   36 1
  31   19   20 1
  32   20   21 1
  33   20   37 1
  34   20   38 1
  35   21   22 ar
  36   21   26 ar
  37   22   23 ar
  38   22   39 1
  39   23   24 ar
  40   23   40 1
  41   24   25 ar
  42   24   41 1
  43   25   26 ar
  44   25   42 1
  45   26   43 1

#	End of record

