#	Name: ASD04162015
#	Creating user name:	WinNT
#	Creation time:	15. 06. 2019 20:48

#	Modifying user name:	WinNT
#	Modification time:	15. 06. 2019 20:48

#	Program:	/corina/corina34_cracker 3.40 0067  02.08.2006

@<TRIPOS>MOLECULE
ASD04162015
  34   35    0    0    0
SMALL
NO_CHARGES


@<TRIPOS>ATOM
   1 C1            -0.0167     1.3769     0.0096 C.ar    
   2 C2             0.0021    -0.0041     0.0020 C.ar    
   3 C3             1.2120    -0.6817    -0.0132 C.ar    
   4 C4             2.4049     0.0271    -0.0208 C.ar    
   5 C5             2.3877     1.4090    -0.0127 C.ar    
   6 C6             1.1765     2.0875     0.0020 C.ar    
   7 O7             1.2294    -2.0417    -0.0202 O.3     
   8 C8            -1.2928    -0.7749     0.0107 C.3     
   9 Br9            4.0542    -0.8978    -0.0415 Br      
  10 N10            1.1580     3.4867     0.0097 N.am    
  11 S11            2.1517     4.3336    -1.0090 S.o2    
  12 O12            1.8748     5.7096    -0.7875 O.2     
  13 O13            3.4479     3.7689    -0.8663 O.2     
  14 C14            1.6337     3.9805    -2.6557 C.ar    
  15 C15            0.6770     4.7716    -3.2639 C.ar    
  16 C16            0.2705     4.4946    -4.5557 C.ar    
  17 C17            0.8210     3.4268    -5.2396 C.ar    
  18 C18            1.7784     2.6363    -4.6317 C.ar    
  19 C19            2.1880     2.9159    -3.3414 C.ar    
  20 C20            0.3772     3.1242    -6.6476 C.3     
  21 H21           -0.9592     1.9041     0.0169 H       
  22 H22            3.3161     1.9609    -0.0179 H       
  23 H23            1.2259    -2.4306    -0.9056 H       
  24 H24           -1.6152    -0.9553    -1.0148 H       
  25 H25           -1.1447    -1.7283     0.5180 H       
  26 H26           -2.0551    -0.1988     0.5353 H       
  27 H27            0.5631     3.9606     0.6118 H       
  28 H28            0.2469     5.6058    -2.7296 H       
  29 H29           -0.4774     5.1122    -5.0306 H       
  30 H30            2.2082     1.8018    -5.1659 H       
  31 H31            2.9359     2.2983    -2.8665 H       
  32 H32            1.0087     3.6657    -7.3519 H       
  33 H33            0.4615     2.0534    -6.8329 H       
  34 H34           -0.6597     3.4347    -6.7763 H       
@<TRIPOS>BOND
   1    1    2 ar
   2    1    6 ar
   3    1   21 1
   4    2    3 ar
   5    2    8 1
   6    3    4 ar
   7    3    7 1
   8    4    5 ar
   9    4    9 1
  10    5    6 ar
  11    5   22 1
  12    6   10 1
  13    7   23 1
  14    8   24 1
  15    8   25 1
  16    8   26 1
  17   10   11 am
  18   10   27 1
  19   11   12 2
  20   11   13 2
  21   11   14 1
  22   14   15 ar
  23   14   19 ar
  24   15   16 ar
  25   15   28 1
  26   16   17 ar
  27   16   29 1
  28   17   18 ar
  29   17   20 1
  30   18   19 ar
  31   18   30 1
  32   19   31 1
  33   20   32 1
  34   20   33 1
  35   20   34 1

#	End of record

