#	Name: ASD01884681
#	Creating user name:	WinNT
#	Creation time:	15. 06. 2019 19:48

#	Modifying user name:	WinNT
#	Modification time:	15. 06. 2019 19:48

#	Program:	/corina/corina34_cracker 3.40 0067  02.08.2006

@<TRIPOS>MOLECULE
ASD01884681
  40   42    0    0    0
SMALL
NO_CHARGES


@<TRIPOS>ATOM
   1 C1            -0.0164     1.3576     0.0095 C.2     
   2 C2             0.0021    -0.0041     0.0020 C.2     
   3 C3             1.2439    -0.6751    -0.0134 C.2     
   4 C4             2.4023     0.0464    -0.0206 C.2     
   5 N5             2.3700     1.4023    -0.0130 N.am    
   6 C6             1.1986     2.0652     0.0017 C.2     
   7 O7             1.1911     3.2857     0.0083 O.2     
   8 C8             1.2896    -2.1585    -0.0214 C.ar    
   9 C9             3.6266     2.1554    -0.0205 C.3     
  10 C10            4.0445     2.4212    -1.4438 C.ar    
  11 C11            3.6260     3.5667    -2.0934 C.ar    
  12 N12            3.9876     3.8063    -3.3389 N.ar    
  13 C13            4.7564     2.9716    -4.0105 C.ar    
  14 C14            5.2139     1.8056    -3.4258 C.ar    
  15 C15            4.8585     1.5221    -2.1162 C.ar    
  16 C16            0.8129    -2.8886     1.0721 C.ar    
  17 C17            1.8023    -2.8432    -1.1196 C.ar    
  18 N18            1.8443    -4.1605    -1.1308 N.ar    
  19 C19            1.4066    -4.8801    -0.1106 C.ar    
  20 C20            0.8764    -4.2683     1.0187 C.ar    
  21 C21            6.0917     0.8569    -4.2006 C.3     
  22 F22            6.3082     1.3660    -5.4856 F       
  23 F23            7.3181     0.7138    -3.5430 F       
  24 F24            5.4636    -0.3898    -4.2927 F       
  25 O25            1.4709    -6.2341    -0.1702 O.3     
  26 C26            2.0201    -6.8058    -1.3592 C.3     
  27 H27           -0.9563     1.8895     0.0169 H       
  28 H28           -0.9217    -0.5635     0.0082 H       
  29 H29            3.3527    -0.4666    -0.0321 H       
  30 H30            3.4855     3.1027     0.4997 H       
  31 H31            4.4004     1.5760     0.4831 H       
  32 H32            2.9953     4.2740    -1.5754 H       
  33 H33            5.0315     3.2015    -5.0292 H       
  34 H34            5.2011     0.6187    -1.6335 H       
  35 H35            0.4055    -2.3867     1.9372 H       
  36 H36            2.1690    -2.2894    -1.9713 H       
  37 H37            0.5215    -4.8638     1.8468 H       
  38 H38            2.0131    -7.8926    -1.2765 H       
  39 H39            1.4212    -6.5029    -2.2181 H       
  40 H40            3.0448    -6.4579    -1.4898 H       
@<TRIPOS>BOND
   1    1    2 2
   2    1    6 1
   3    1   27 1
   4    2    3 1
   5    2   28 1
   6    3    4 2
   7    3    8 1
   8    4    5 1
   9    4   29 1
  10    5    6 am
  11    5    9 1
  12    6    7 2
  13    8   16 ar
  14    8   17 ar
  15    9   10 1
  16    9   30 1
  17    9   31 1
  18   10   11 ar
  19   10   15 ar
  20   11   12 ar
  21   11   32 1
  22   12   13 ar
  23   13   14 ar
  24   13   33 1
  25   14   15 ar
  26   14   21 1
  27   15   34 1
  28   16   20 ar
  29   16   35 1
  30   17   18 ar
  31   17   36 1
  32   18   19 ar
  33   19   20 ar
  34   19   25 1
  35   20   37 1
  36   21   22 1
  37   21   23 1
  38   21   24 1
  39   25   26 1
  40   26   38 1
  41   26   39 1
  42   26   40 1

#	End of record

