#	Name: ASD02198179
#	Creating user name:	WinNT
#	Creation time:	15. 06. 2019 20:18

#	Modifying user name:	WinNT
#	Modification time:	15. 06. 2019 20:18

#	Program:	/corina/corina34_cracker 3.40 0067  02.08.2006

@<TRIPOS>MOLECULE
ASD02198179
  50   53    0    0    0
SMALL
NO_CHARGES


@<TRIPOS>ATOM
   1 C1            -0.0153     1.3843     0.1754 C.2     
   2 C2             0.0001     0.0060     0.1207 C.2     
   3 C3            -1.1910    -0.7890     0.1336 C.1     
   4 S4             1.5693     2.0124     0.1408 S.3     
   5 C5             2.2746     0.4064     0.0514 C.2     
   6 C6             1.2782    -0.5428     0.0514 C.2     
   7 C7             3.6539     0.1312    -0.0106 C.2     
   8 C8             4.6287     1.2394    -0.0026 C.2     
   9 O9             4.0434    -1.0234    -0.0710 O.2     
  10 N10            1.5218    -1.9055    -0.0105 N.pl3   
  11 N11           -1.1555     2.1490     0.2429 N.pl3   
  12 N12           -2.1358    -1.4196     0.1439 N.1     
  13 O13            4.3537     2.5552     0.0605 O.3     
  14 C14           -1.0558     3.6096     0.2970 C.3     
  15 C15           -2.3464     4.2466    -0.2474 C.3     
  16 C16           -2.9476     5.0778     0.9048 C.3     
  17 C17           -1.7376     5.3887     1.8204 C.3     
  18 C18           -0.9178     4.0759     1.7610 C.3     
  19 N19            5.3605     3.2240     0.0497 N.2     
  20 C20            6.4375     2.4814    -0.0202 C.2     
  21 C21            5.9913     1.1331    -0.0517 C.2     
  22 C22            7.8430     2.9541    -0.0544 C.2     
  23 N23            8.1087     4.2719    -0.1507 N.am    
  24 O24            8.7549     2.1533     0.0043 O.2     
  25 C25            9.4879     4.7757    -0.0542 C.3     
  26 C26            9.7495     5.7006    -1.2484 C.3     
  27 O27            8.7166     6.6867    -1.3151 O.3     
  28 C28            7.4095     6.1513    -1.5355 C.3     
  29 C29            7.0287     5.2489    -0.3616 C.3     
  30 H30            2.4335    -2.2336    -0.0570 H       
  31 H31            0.7807    -2.5313    -0.0074 H       
  32 H32           -2.0262     1.7216     0.2546 H       
  33 H33           -0.1985     3.9469    -0.2855 H       
  34 H34           -2.1153     4.8937    -1.0935 H       
  35 H35           -3.0469     3.4690    -0.5519 H       
  36 H36           -3.3836     6.0006     0.5223 H       
  37 H37           -3.6952     4.4967     1.4447 H       
  38 H38           -1.1589     6.2238     1.4255 H       
  39 H39           -2.0667     5.5929     2.8393 H       
  40 H40           -1.3376     3.3330     2.4392 H       
  41 H41            0.1275     4.2677     2.0034 H       
  42 H42            6.5882     0.2348    -0.1077 H       
  43 H43            9.6113     5.3320     0.8750 H       
  44 H44           10.1866     3.9394    -0.0775 H       
  45 H45           10.7145     6.1919    -1.1238 H       
  46 H46            9.7541     5.1154    -2.1679 H       
  47 H47            6.6910     6.9668    -1.6174 H       
  48 H48            7.4056     5.5677    -2.4561 H       
  49 H49            6.0984     4.7272    -0.5864 H       
  50 H50            6.9044     5.8506     0.5387 H       
@<TRIPOS>BOND
   1    1    2 2
   2    1    4 1
   3    1   11 1
   4    2    3 1
   5    2    6 1
   6    3   12 3
   7    4    5 1
   8    5    6 2
   9    5    7 1
  10    6   10 1
  11    7    8 1
  12    7    9 2
  13    8   13 1
  14    8   21 2
  15   10   30 1
  16   10   31 1
  17   11   14 1
  18   11   32 1
  19   13   19 1
  20   14   15 1
  21   14   18 1
  22   14   33 1
  23   15   16 1
  24   15   34 1
  25   15   35 1
  26   16   17 1
  27   16   36 1
  28   16   37 1
  29   17   18 1
  30   17   38 1
  31   17   39 1
  32   18   40 1
  33   18   41 1
  34   19   20 2
  35   20   21 1
  36   20   22 1
  37   21   42 1
  38   22   23 am
  39   22   24 2
  40   23   25 1
  41   23   29 1
  42   25   26 1
  43   25   43 1
  44   25   44 1
  45   26   27 1
  46   26   45 1
  47   26   46 1
  48   27   28 1
  49   28   29 1
  50   28   47 1
  51   28   48 1
  52   29   49 1
  53   29   50 1

#	End of record

