#	Name: ASD00170008
#	Creating user name:	WinNT
#	Creation time:	15. 06. 2019 18:31

#	Modifying user name:	WinNT
#	Modification time:	15. 06. 2019 18:31

#	Program:	/corina/corina34_cracker 3.40 0067  02.08.2006

@<TRIPOS>MOLECULE
ASD00170008
  53   57    0    0    0
SMALL
NO_CHARGES


@<TRIPOS>ATOM
   1 C1             0.5524     1.5917    -0.7154 C.ar    
   2 C2             8.4438     1.2902     5.1914 C.ar    
   3 C3             7.1370     1.6314     4.9134 C.ar    
   4 C4             6.8474     2.8786     4.3570 C.ar    
   5 C5             7.8842     3.7731     4.0849 C.ar    
   6 C6             9.1871     3.4205     4.3668 C.ar    
   7 C7             9.4683     2.1817     4.9189 C.ar    
   8 C8             5.4481     3.2506     4.0565 C.2     
   9 C9             5.1353     4.5985     3.5823 C.2     
  10 O10            4.5561     2.4347     4.2038 O.2     
  11 Cl11          11.1111     1.7448     5.2711 Cl      
  12 C12            5.0496     4.9569     2.1821 C.2     
  13 C13            4.7541     6.2326     1.9875 C.2     
  14 S14            4.5630     7.0718     3.5163 S.3     
  15 C15            4.8849     5.6619     4.4183 C.2     
  16 N16            4.8994     5.5977     5.7968 N.pl3   
  17 C17            5.2745     3.9768     1.0597 C.3     
  18 N18            4.0596     3.1761     0.8579 N.3     
  19 C19            4.1530     2.3782    -0.3726 C.3     
  20 C20            2.9058     1.5010    -0.5046 C.3     
  21 N21            1.7096     2.3545    -0.5233 N.3     
  22 C22            1.6162     3.1523     0.7073 C.3     
  23 C23            2.8634     4.0295     0.8393 C.3     
  24 C24            0.6447     0.2139    -0.8578 C.ar    
  25 C25           -0.4978    -0.5409    -1.0472 C.ar    
  26 C26           -1.7374     0.0748    -1.0955 C.ar    
  27 C27           -1.8334     1.4572    -0.9529 C.ar    
  28 C28           -0.6891     2.2122    -0.7579 C.ar    
  29 O29           -2.9938    -0.4339    -1.2677 O.3     
  30 C30           -3.8912     0.5997    -0.8211 C.3     
  31 O31           -3.1484     1.8142    -1.0360 O.3     
  32 H32            8.6686     0.3274     5.6260 H       
  33 H33            6.3390     0.9354     5.1260 H       
  34 H34            7.6662     4.7392     3.6541 H       
  35 H35            9.9900     4.1115     4.1565 H       
  36 H36            4.6458     6.6949     1.0175 H       
  37 H37            4.7970     6.4073     6.3212 H       
  38 H38            5.0121     4.7429     6.2413 H       
  39 H39            5.5077     4.5203     0.1441 H       
  40 H40            6.1056     3.3187     1.3131 H       
  41 H41            4.2223     3.0437    -1.2331 H       
  42 H42            5.0396     1.7456    -0.3295 H       
  43 H43            2.9594     0.9298    -1.4314 H       
  44 H44            2.8512     0.8168     0.3421 H       
  45 H45            0.7296     3.7849     0.6642 H       
  46 H46            1.5469     2.4868     1.5678 H       
  47 H47            2.8098     4.6008     1.7661 H       
  48 H48            2.9180     4.7138    -0.0074 H       
  49 H49            1.6102    -0.2687    -0.8209 H       
  50 H50           -0.4236    -1.6126    -1.1581 H       
  51 H51           -0.7615     3.2840    -0.6468 H       
  52 H52           -4.8038     0.5983    -1.4171 H       
  53 H53           -4.1232     0.4747     0.2366 H       
@<TRIPOS>BOND
   1    1   24 ar
   2    1   21 1
   3    1   28 ar
   4    2    3 ar
   5    2    7 ar
   6    2   32 1
   7    3    4 ar
   8    3   33 1
   9    4    5 ar
  10    4    8 1
  11    5    6 ar
  12    5   34 1
  13    6    7 ar
  14    6   35 1
  15    7   11 1
  16    8    9 1
  17    8   10 2
  18    9   12 1
  19    9   15 2
  20   12   13 2
  21   12   17 1
  22   13   14 1
  23   13   36 1
  24   14   15 1
  25   15   16 1
  26   16   37 1
  27   16   38 1
  28   17   18 1
  29   17   39 1
  30   17   40 1
  31   18   19 1
  32   18   23 1
  33   19   20 1
  34   19   41 1
  35   19   42 1
  36   20   21 1
  37   20   43 1
  38   20   44 1
  39   21   22 1
  40   22   23 1
  41   22   45 1
  42   22   46 1
  43   23   47 1
  44   23   48 1
  45   24   25 ar
  46   24   49 1
  47   25   26 ar
  48   25   50 1
  49   26   27 ar
  50   26   29 1
  51   27   28 ar
  52   27   31 1
  53   28   51 1
  54   29   30 1
  55   30   31 1
  56   30   52 1
  57   30   53 1

#	End of record

