#	Name: ASD01812910
#	Creating user name:	WinNT
#	Creation time:	15. 06. 2019 19:29

#	Modifying user name:	WinNT
#	Modification time:	15. 06. 2019 19:29

#	Program:	/corina/corina34_cracker 3.40 0067  02.08.2006

@<TRIPOS>MOLECULE
ASD01812910
  53   56    0    0    0
SMALL
NO_CHARGES


@<TRIPOS>ATOM
   1 N1             0.0027     1.3184    -0.2223 N.ar    
   2 C2             0.0319     0.0057    -0.3459 C.ar    
   3 C3             1.2340    -0.6843    -0.3686 C.ar    
   4 C4             2.4113     0.0205    -0.2597 C.ar    
   5 C5             2.3614     1.4132    -0.1293 C.ar    
   6 C6             1.1073     2.0395    -0.1145 C.ar    
   7 C7             3.8682    -0.3580    -0.2438 C.3     
   8 N8             4.6152     0.8976    -0.0979 N.am    
   9 C9             3.7395     1.9163    -0.0324 C.2     
  10 C10            6.0736     1.0205    -0.0343 C.3     
  11 C11            6.6241     1.1969    -1.4260 C.ar    
  12 O12            1.0259     3.3855     0.0100 O.3     
  13 O13            4.0442     3.0871     0.0890 O.2     
  14 C14            6.7706     2.4678    -1.9528 C.ar    
  15 C15            7.2743     2.6363    -3.2260 C.ar    
  16 C16            7.6364     1.5210    -3.9831 C.ar    
  17 C17            7.4861     0.2416    -3.4457 C.ar    
  18 C18            6.9860     0.0874    -2.1692 C.ar    
  19 C19           -0.2021     3.9617    -0.0802 C.ar    
  20 C20           -1.0089     4.0614     1.0469 C.ar    
  21 C21           -2.2575     4.6481     0.9512 C.ar    
  22 C22           -0.6498     4.4560    -1.2957 C.ar    
  23 F23           -0.5742     3.5855     2.2342 F       
  24 C24           -2.7025     5.1344    -0.2646 C.ar    
  25 C25           -1.8987     5.0414    -1.3852 C.ar    
  26 C26           -4.0638     5.7728    -0.3664 C.3     
  27 O27            8.3059     2.8094    -5.8140 O.2     
  28 C28            8.1764     1.6940    -5.3485 C.2     
  29 N29            8.5252     0.6150    -6.0770 N.am    
  30 C30            9.0603     0.7865    -7.4299 C.3     
  31 C31            9.3734    -0.5847    -8.0321 C.3     
  32 H32           -0.8959    -0.5406    -0.4305 H       
  33 H33            1.2466    -1.7594    -0.4699 H       
  34 H34            4.0750    -1.0173     0.5993 H       
  35 H35            4.1383    -0.8484    -1.1790 H       
  36 H36            6.3392     1.8853     0.5738 H       
  37 H37            6.4950     0.1196     0.4116 H       
  38 H38            6.4896     3.3299    -1.3661 H       
  39 H39            7.3878     3.6289    -3.6362 H       
  40 H40            7.7644    -0.6254    -4.0264 H       
  41 H41            6.8730    -0.9018    -1.7507 H       
  42 H42           -2.8856     4.7263     1.8263 H       
  43 H43           -0.0228     4.3841    -2.1721 H       
  44 H44           -2.2489     5.4224    -2.3332 H       
  45 H45           -4.8047     5.0117    -0.6111 H       
  46 H46           -4.3200     6.2362     0.5863 H       
  47 H47           -4.0513     6.5323    -1.1482 H       
  48 H48            8.4219    -0.2750    -5.7055 H       
  49 H49            8.3230     1.2960    -8.0504 H       
  50 H50            9.9726     1.3814    -7.3871 H       
  51 H51            9.7715    -0.4572    -9.0387 H       
  52 H52           10.1106    -1.0943    -7.4117 H       
  53 H53            8.4611    -1.1796    -8.0749 H       
@<TRIPOS>BOND
   1    1    2 ar
   2    1    6 ar
   3    2    3 ar
   4    2   32 1
   5    3    4 ar
   6    3   33 1
   7    4    7 1
   8    4    5 ar
   9    5    6 ar
  10    5    9 1
  11    6   12 1
  12    7    8 1
  13    7   34 1
  14    7   35 1
  15    8    9 am
  16    8   10 1
  17    9   13 2
  18   10   11 1
  19   10   36 1
  20   10   37 1
  21   11   14 ar
  22   11   18 ar
  23   12   19 1
  24   14   15 ar
  25   14   38 1
  26   15   16 ar
  27   15   39 1
  28   16   17 ar
  29   16   28 1
  30   17   18 ar
  31   17   40 1
  32   18   41 1
  33   19   20 ar
  34   19   22 ar
  35   20   23 1
  36   20   21 ar
  37   21   24 ar
  38   21   42 1
  39   22   25 ar
  40   22   43 1
  41   24   25 ar
  42   24   26 1
  43   25   44 1
  44   26   45 1
  45   26   46 1
  46   26   47 1
  47   27   28 2
  48   28   29 am
  49   29   30 1
  50   29   48 1
  51   30   31 1
  52   30   49 1
  53   30   50 1
  54   31   51 1
  55   31   52 1
  56   31   53 1

#	End of record

