#	Name: ASD01840206
#	Creating user name:	WinNT
#	Creation time:	15. 06. 2019 19:37

#	Modifying user name:	WinNT
#	Modification time:	15. 06. 2019 19:37

#	Program:	/corina/corina34_cracker 3.40 0067  02.08.2006

@<TRIPOS>MOLECULE
ASD01840206
  46   49    0    0    0
SMALL
NO_CHARGES


@<TRIPOS>ATOM
   1 C1             0.6662     1.7874     0.3208 C.ar    
   2 C2             0.5914     0.4053     0.4843 C.ar    
   3 C3             1.6811    -0.3842     0.2531 C.ar    
   4 C4             2.8876     0.2018    -0.1534 C.ar    
   5 C5             2.9656     1.6051    -0.3205 C.ar    
   6 C6             1.8249     2.3856    -0.0733 C.ar    
   7 C7             4.0375    -0.5852    -0.4015 C.ar    
   8 C8             5.2067     0.0755    -0.8046 C.ar    
   9 C9             5.1929     1.4728    -0.9449 C.ar    
  10 N10            4.1147     2.1756    -0.7095 N.ar    
  11 F11           -0.5717    -0.1592     0.8761 F       
  12 N12            4.0091    -1.9561    -0.2514 N.3     
  13 C13            4.3317    -2.6307    -1.5152 C.3     
  14 C14            4.1491    -4.1411    -1.3499 C.3     
  15 C15            5.0687    -4.6423    -0.2330 C.3     
  16 C16            4.7448    -3.8896     1.0605 C.3     
  17 C17            4.9102    -2.3864     0.8253 C.3     
  18 O18            4.8612    -6.0423    -0.0356 O.3     
  19 C19            5.8920    -6.7498     0.4973 C.ar    
  20 C20            5.8108    -8.1293     0.6169 C.ar    
  21 N21            6.8083    -8.8198     1.1332 N.ar    
  22 C22            7.9131    -8.2355     1.5531 C.ar    
  23 C23            8.0677    -6.8643     1.4671 C.ar    
  24 C24            7.0462    -6.1013     0.9252 C.ar    
  25 C25            9.0222    -9.0736     2.1351 C.3     
  26 C26            6.4023    -0.6666    -1.0700 C.1     
  27 N27            7.3508    -1.2553    -1.2805 N.1     
  28 H28           -0.2090     2.3928     0.5050 H       
  29 H29            1.6138    -1.4542     0.3832 H       
  30 H30            1.8659     3.4579    -0.1957 H       
  31 H31            6.0946     1.9798    -1.2551 H       
  32 H32            3.6678    -2.2684    -2.3001 H       
  33 H33            5.3655    -2.4175    -1.7871 H       
  34 H34            3.1122    -4.3562    -1.0915 H       
  35 H35            4.4036    -4.6428    -2.2835 H       
  36 H36            6.1079    -4.4625    -0.5086 H       
  37 H37            3.7173    -4.1007     1.3568 H       
  38 H38            5.4250    -4.2115     1.8490 H       
  39 H39            5.9413    -2.1744     0.5424 H       
  40 H40            4.6664    -1.8467     1.7403 H       
  41 H41            4.9211    -8.6431     0.2841 H       
  42 H42            8.9759    -6.3941     1.8142 H       
  43 H43            7.1397    -5.0283     0.8456 H       
  44 H44            9.7010    -9.3811     1.3396 H       
  45 H45            9.5698    -8.4889     2.8742 H       
  46 H46            8.5979    -9.9570     2.6124 H       
@<TRIPOS>BOND
   1    1    2 ar
   2    1    6 ar
   3    1   28 1
   4    2    3 ar
   5    2   11 1
   6    3    4 ar
   7    3   29 1
   8    4    5 ar
   9    4    7 ar
  10    5    6 ar
  11    5   10 ar
  12    6   30 1
  13    7    8 ar
  14    7   12 1
  15    8   26 1
  16    8    9 ar
  17    9   10 ar
  18    9   31 1
  19   12   13 1
  20   12   17 1
  21   13   14 1
  22   13   32 1
  23   13   33 1
  24   14   15 1
  25   14   34 1
  26   14   35 1
  27   15   16 1
  28   15   18 1
  29   15   36 1
  30   16   17 1
  31   16   37 1
  32   16   38 1
  33   17   39 1
  34   17   40 1
  35   18   19 1
  36   19   20 ar
  37   19   24 ar
  38   20   21 ar
  39   20   41 1
  40   21   22 ar
  41   22   23 ar
  42   22   25 1
  43   23   24 ar
  44   23   42 1
  45   24   43 1
  46   25   44 1
  47   25   45 1
  48   25   46 1
  49   26   27 3

#	End of record

