#	Name: ASD01870298
#	Creating user name:	WinNT
#	Creation time:	15. 06. 2019 19:38

#	Modifying user name:	WinNT
#	Modification time:	15. 06. 2019 19:38

#	Program:	/corina/corina34_cracker 3.40 0067  02.08.2006

@<TRIPOS>MOLECULE
ASD01870298
  52   54    0    0    0
SMALL
NO_CHARGES


@<TRIPOS>ATOM
   1 C1            -0.0169     1.3920     0.0097 C.ar    
   2 C2             0.0021    -0.0041     0.0020 C.ar    
   3 C3            -1.2660    -0.7630     0.0096 C.2     
   4 N4            -1.2449    -2.1106     0.0021 N.am    
   5 C5            -2.5020    -2.8629     0.0096 C.3     
   6 C6            -2.1989    -4.3626    -0.0012 C.3     
   7 N7            -3.4594    -5.1169     0.0063 N.3     
   8 C8            -3.2069    -6.5641    -0.0038 C.3     
   9 O9            -2.3281    -0.1718     0.0225 O.2     
  10 C10           -4.4031    -7.2943     0.6136 C.3     
  11 N11           -4.1922    -9.1082    -0.9929 N.am    
  12 C12           -4.1943    -8.8093     0.4596 C.3     
  13 C13           -2.8914    -8.5686    -1.4576 C.3     
  14 C14           -3.0030    -7.0357    -1.4465 C.3     
  15 C15           -1.8921    -8.9785    -0.3514 C.3     
  16 C16           -2.7548    -9.1379     0.9181 C.3     
  17 C17           -5.1463    -9.7242    -1.7186 C.2     
  18 O18           -6.1648   -10.1105    -1.1801 O.2     
  19 O19           -4.9711    -9.9114    -3.0403 O.3     
  20 C20           -6.0400   -10.5820    -3.7586 C.3     
  21 C21           -5.6636   -10.7033    -5.2366 C.3     
  22 C22            1.2230    -0.6803    -0.0133 C.ar    
  23 C23            2.4048     0.0349    -0.0207 C.ar    
  24 C24            2.3783     1.4215    -0.0130 C.ar    
  25 C25            1.1688     2.0959     0.0022 C.ar    
  26 F26            3.5879    -0.6172    -0.0351 F       
  27 Cl27           3.8666     2.3151    -0.0219 Cl      
  28 H28           -0.9590     1.9199     0.0170 H       
  29 H29           -0.3974    -2.5823    -0.0082 H       
  30 H30           -3.0694    -2.6134     0.9062 H       
  31 H31           -3.0858    -2.6038    -0.8737 H       
  32 H32           -1.6315    -4.6121    -0.8978 H       
  33 H33           -1.6152    -4.6217     0.8820 H       
  34 H34           -4.0327    -4.8554     0.7943 H       
  35 H35           -2.3106    -6.7799     0.5777 H       
  36 H36           -4.4788    -7.0418     1.6712 H       
  37 H37           -5.3172    -6.9976     0.0992 H       
  38 H38           -4.9484    -9.3839     0.9974 H       
  39 H39           -2.6080    -8.9607    -2.4343 H       
  40 H40           -3.8530    -6.7271    -2.0551 H       
  41 H41           -2.0877    -6.6001    -1.8471 H       
  42 H42           -1.4117    -9.9235    -0.6050 H       
  43 H43           -1.1446    -8.1984    -0.2070 H       
  44 H44           -2.4318    -8.4361     1.6871 H       
  45 H45           -2.6988   -10.1612     1.2891 H       
  46 H46           -6.1912   -11.5767    -3.3394 H       
  47 H47           -6.9595   -10.0043    -3.6640 H       
  48 H48           -6.4661   -11.2066    -5.7758 H       
  49 H49           -5.5124    -9.7085    -5.6558 H       
  50 H50           -4.7442   -11.2810    -5.3311 H       
  51 H51            1.2437    -1.7601    -0.0189 H       
  52 H52            1.1543     3.1758     0.0077 H       
@<TRIPOS>BOND
   1    1    2 ar
   2    1   25 ar
   3    1   28 1
   4    2    3 1
   5    2   22 ar
   6    3    4 am
   7    3    9 2
   8    4    5 1
   9    4   29 1
  10    5    6 1
  11    5   30 1
  12    5   31 1
  13    6    7 1
  14    6   32 1
  15    6   33 1
  16    7    8 1
  17    7   34 1
  18    8   10 1
  19    8   14 1
  20    8   35 1
  21   10   12 1
  22   10   36 1
  23   10   37 1
  24   11   12 1
  25   11   13 1
  26   11   17 am
  27   12   16 1
  28   12   38 1
  29   13   15 1
  30   13   14 1
  31   13   39 1
  32   14   40 1
  33   14   41 1
  34   15   16 1
  35   15   42 1
  36   15   43 1
  37   16   44 1
  38   16   45 1
  39   17   18 2
  40   17   19 1
  41   19   20 1
  42   20   21 1
  43   20   46 1
  44   20   47 1
  45   21   48 1
  46   21   49 1
  47   21   50 1
  48   22   23 ar
  49   22   51 1
  50   23   24 ar
  51   23   26 1
  52   24   25 ar
  53   24   27 1
  54   25   52 1

#	End of record

