#	Name: ASD03570023
#	Creating user name:	WinNT
#	Creation time:	15. 06. 2019 20:43

#	Modifying user name:	WinNT
#	Modification time:	15. 06. 2019 20:43

#	Program:	/corina/corina34_cracker 3.40 0067  02.08.2006

@<TRIPOS>MOLECULE
ASD03570023
  35   37    0    0    0
SMALL
NO_CHARGES


@<TRIPOS>ATOM
   1 C1            -0.0169     1.3983     0.0097 C.ar    
   2 C2             0.0021    -0.0041     0.0020 C.ar    
   3 C3             1.2127    -0.6902    -0.0128 C.ar    
   4 C4             2.4057     0.0198    -0.0204 C.ar    
   5 C5             2.3770     1.4301    -0.0131 C.ar    
   6 C6             1.1464     2.1043     0.0024 C.ar    
   7 N7             3.7268    -0.3647    -0.0355 N.pl3   
   8 C8             4.5190     0.7689    -0.0377 C.2     
   9 C9             3.7204     1.8705    -0.0242 C.2     
  10 C10            4.1850     3.3041    -0.0217 C.3     
  11 C11            4.3284     3.7963    -1.4632 C.3     
  12 C12           -1.2686    -0.7561     0.0102 C.2     
  13 C13           -2.5000    -0.2051     0.0249 C.2     
  14 C14           -3.5375    -1.1133     0.0300 C.2     
  15 C15           -3.1664    -2.3975     0.0195 C.2     
  16 S16           -1.4115    -2.5092    -0.0055 S.3     
  17 C17            5.9864     0.7817    -0.0527 C.2     
  18 O18            6.5852     1.8399    -0.0529 O.2     
  19 O19            6.6708    -0.3804    -0.0663 O.3     
  20 C20            4.7930     5.2299    -1.4606 C.2     
  21 O21            4.9892     5.7995    -0.4133 O.2     
  22 O22            4.9888     5.8740    -2.6219 O.3     
  23 H23           -0.9616     1.9217     0.0170 H       
  24 H24            1.2241    -1.7701    -0.0180 H       
  25 H25            1.1226     3.1841     0.0077 H       
  26 H26            4.0491    -1.2795    -0.0428 H       
  27 H27            3.4553     3.9216     0.5022 H       
  28 H28            5.1485     3.3729     0.4833 H       
  29 H29            5.0581     3.1789    -1.9871 H       
  30 H30            3.3649     3.7275    -1.9682 H       
  31 H31           -2.6604     0.8629     0.0325 H       
  32 H32           -4.5739    -0.8095     0.0419 H       
  33 H33           -3.8426    -3.2396     0.0215 H       
  34 H34            7.6359    -0.3214    -0.0759 H       
  35 H35            5.2870     6.7924    -2.5696 H       
@<TRIPOS>BOND
   1    1    2 ar
   2    1    6 ar
   3    1   23 1
   4    2    3 ar
   5    2   12 1
   6    3    4 ar
   7    3   24 1
   8    4    5 ar
   9    4    7 1
  10    5    6 ar
  11    5    9 1
  12    6   25 1
  13    7    8 1
  14    7   26 1
  15    8    9 2
  16    8   17 1
  17    9   10 1
  18   10   11 1
  19   10   27 1
  20   10   28 1
  21   11   20 1
  22   11   29 1
  23   11   30 1
  24   12   13 2
  25   12   16 1
  26   13   14 1
  27   13   31 1
  28   14   15 2
  29   14   32 1
  30   15   16 1
  31   15   33 1
  32   17   18 2
  33   17   19 1
  34   19   34 1
  35   20   21 2
  36   20   22 1
  37   22   35 1

#	End of record

