#	Name: ASD02198154
#	Creating user name:	WinNT
#	Creation time:	15. 06. 2019 20:18

#	Modifying user name:	WinNT
#	Modification time:	15. 06. 2019 20:18

#	Program:	/corina/corina34_cracker 3.40 0067  02.08.2006

@<TRIPOS>MOLECULE
ASD02198154
  46   49    0    0    0
SMALL
NO_CHARGES


@<TRIPOS>ATOM
   1 C1            -0.0549     1.3543     0.4704 C.2     
   2 C2             0.0290    -0.0117     0.2949 C.2     
   3 C3            -0.9771    -0.7749    -0.3802 C.1     
   4 S4             1.3058     1.9446     1.3111 S.3     
   5 C5             2.0078     0.3395     1.4353 C.2     
   6 C6             1.1800    -0.5811     0.8328 C.2     
   7 C7             3.2325     0.0394     2.0572 C.2     
   8 C8             4.0358     1.1219     2.6731 C.ar    
   9 O9             3.6338    -1.1115     2.0898 O.2     
  10 N10            1.4634    -1.9355     0.7684 N.pl3   
  11 N11           -1.0937     2.1355     0.0222 N.pl3   
  12 N12           -1.7752    -1.3805    -0.9158 N.1     
  13 C13            5.2485     0.8181     3.2879 C.ar    
  14 C14            5.9885     1.8410     3.8589 C.ar    
  15 C15            5.4900     3.1331     3.7955 C.ar    
  16 C16            4.2765     3.3629     3.1683 C.ar    
  17 N17            3.5963     2.3738     2.6297 N.ar    
  18 C18           -1.0205     3.5284     0.1343 C.ar    
  19 C19            0.1847     4.1812    -0.0905 C.ar    
  20 C20            0.2562     5.5556     0.0203 C.ar    
  21 C21           -0.8756     6.2847     0.3560 C.ar    
  22 C22           -2.0800     5.6333     0.5807 C.ar    
  23 C23           -2.1544     4.2595     0.4647 C.ar    
  24 O24           -0.8044     7.6380     0.4653 O.3     
  25 C25           -0.7109     8.3663    -0.6780 C.ar    
  26 C26           -0.8108     7.7391    -1.9118 C.ar    
  27 C27           -0.5210     9.7393    -0.6138 C.ar    
  28 C28           -0.4268    10.4775    -1.7777 C.ar    
  29 C29           -0.5214     9.8492    -3.0058 C.ar    
  30 C30           -0.7159     8.4819    -3.0725 C.ar    
  31 H31            2.2814    -2.2791     1.1605 H       
  32 H32            0.8439    -2.5404     0.3311 H       
  33 H33           -1.8773     1.7211    -0.3716 H       
  34 H34            5.6066    -0.2003     3.3192 H       
  35 H35            6.9321     1.6363     4.3428 H       
  36 H36            6.0423     3.9526     4.2312 H       
  37 H37            3.8853     4.3683     3.1172 H       
  38 H38            1.0659     3.6138    -0.3515 H       
  39 H39            1.1933     6.0633    -0.1541 H       
  40 H40           -2.9605     6.2015     0.8419 H       
  41 H41           -3.0919     3.7527     0.6393 H       
  42 H42           -0.9623     6.6711    -1.9644 H       
  43 H43           -0.4474    10.2306     0.3452 H       
  44 H44           -0.2794    11.5462    -1.7283 H       
  45 H45           -0.4475    10.4282    -3.9145 H       
  46 H46           -0.7891     7.9936    -4.0330 H       
@<TRIPOS>BOND
   1    1    2 2
   2    1    4 1
   3    1   11 1
   4    2    3 1
   5    2    6 1
   6    3   12 3
   7    4    5 1
   8    5    6 2
   9    5    7 1
  10    6   10 1
  11    7    8 1
  12    7    9 2
  13    8   13 ar
  14    8   17 ar
  15   10   31 1
  16   10   32 1
  17   11   18 1
  18   11   33 1
  19   13   14 ar
  20   13   34 1
  21   14   15 ar
  22   14   35 1
  23   15   16 ar
  24   15   36 1
  25   16   17 ar
  26   16   37 1
  27   18   19 ar
  28   18   23 ar
  29   19   20 ar
  30   19   38 1
  31   20   21 ar
  32   20   39 1
  33   21   22 ar
  34   21   24 1
  35   22   23 ar
  36   22   40 1
  37   23   41 1
  38   24   25 1
  39   25   26 ar
  40   25   27 ar
  41   26   30 ar
  42   26   42 1
  43   27   28 ar
  44   27   43 1
  45   28   29 ar
  46   28   44 1
  47   29   30 ar
  48   29   45 1
  49   30   46 1

#	End of record

