#	Name: ASD06590054
#	Creating user name:	WinNT
#	Creation time:	15. 06. 2019 21:06

#	Modifying user name:	WinNT
#	Modification time:	15. 06. 2019 21:06

#	Program:	/corina/corina34_cracker 3.40 0067  02.08.2006

@<TRIPOS>MOLECULE
ASD06590054
 304  307    0    0    0
SMALL
NO_CHARGES


@<TRIPOS>ATOM
   1 C1             0.2837     3.7704    -0.6249 C.2     
   2 O2             0.3787     2.8167     0.1184 O.2     
   3 N3             2.5794     4.2995    -0.0292 N.3     
   4 C4             1.5136     4.5526    -1.0079 C.3     
   5 C5             1.9830     4.1166    -2.3973 C.3     
   6 C6             3.1550     4.9956    -2.8388 C.3     
   7 C7             3.6244     4.5597    -4.2282 C.3     
   8 N8             4.7466     5.4013    -4.6508 N.pl3   
   9 C9             5.3380     5.1946    -5.8742 C.2     
  10 N10            4.9751     4.1840    -6.6102 N.2     
  11 N11            6.3176     6.0594    -6.3228 N.am    
  12 C12           -3.1632     3.5224    -1.8167 C.2     
  13 O13           -2.9343     4.2068    -2.7915 O.2     
  14 N14           -0.9209     4.1272    -1.1127 N.am    
  15 C15           -2.1156     3.3631    -0.7451 C.3     
  16 C16           -2.6639     3.8827     0.5854 C.3     
  17 C17           -1.6496     3.6077     1.6973 C.3     
  18 C18           -2.1979     4.1273     3.0278 C.3     
  19 N19           -1.2267     3.8639     4.0925 N.pl3   
  20 C20           -1.5026     4.2449     5.3843 C.2     
  21 N21           -0.6385     4.0106     6.3316 N.2     
  22 N22           -2.6900     4.8730     5.6770 N.pl3   
  23 C23           -6.7232     2.8572    -2.2164 C.2     
  24 O24           -6.8927     2.3904    -1.1099 O.2     
  25 N25           -4.3543     2.9044    -1.6918 N.am    
  26 C26           -5.3309     2.9688    -2.7820 C.3     
  27 C27           -5.0829     1.8167    -3.7576 C.3     
  28 C28           -6.0016     1.9695    -4.9715 C.3     
  29 C29           -5.6034     3.2198    -5.7583 C.3     
  30 C30           -5.8691     0.7380    -5.8697 C.3     
  31 C31          -10.1519     3.1745    -3.4439 C.2     
  32 O32           -9.8015     3.1150    -4.6035 O.2     
  33 N33           -7.7802     3.2762    -2.9402 N.am    
  34 C34           -9.1207     3.2716    -2.3492 C.3     
  35 C35           -9.3347     4.5649    -1.5602 C.3     
  36 C36           -8.3840     4.6035    -0.3916 C.2     
  37 C37           -7.5088     5.5892    -0.1157 C.2     
  38 N38           -6.8488     5.2244     1.0267 N.pl3   
  39 C39           -7.3440     4.0278     1.4094 C.2     
  40 N40           -8.2652     3.6650     0.5592 N.2     
  41 C41          -13.7659     3.6512    -3.7179 C.2     
  42 O42          -13.8470     4.1070    -2.5969 O.2     
  43 N43          -11.4634     3.1538    -3.1343 N.am    
  44 C44          -12.4659     3.0594    -4.1984 C.3     
  45 C45          -12.6802     1.5904    -4.5684 C.3     
  46 O46          -13.2450     0.8961    -3.4543 O.3     
  47 C47          -17.2458     3.6418    -4.8372 C.2     
  48 O48          -17.0269     2.8102    -5.6924 O.2     
  49 N49          -14.8383     3.6741    -4.5338 N.am    
  50 C50          -16.1020     4.2494    -4.0667 C.3     
  51 C51          -16.0856     5.7633    -4.2873 C.3     
  52 C52          -14.8536     6.3643    -3.6078 C.3     
  53 O53          -16.0394     6.0400    -5.6885 O.3     
  54 C54          -20.7917     4.3845    -5.3250 C.2     
  55 O55          -20.7039     5.4516    -4.7552 O.2     
  56 N56          -18.5120     4.0227    -4.5760 N.am    
  57 C57          -19.6238     3.4321    -5.3251 C.3     
  58 C58          -20.0397     2.1150    -4.6668 C.3     
  59 C59          -18.8953     1.1056    -4.7780 C.3     
  60 C60          -19.3112    -0.2114    -4.1197 C.3     
  61 N61          -18.2155    -1.1779    -4.2262 N.pl3   
  62 C62          -18.3594    -2.4408    -3.7022 C.2     
  63 N63          -19.4708    -2.7782    -3.1107 N.2     
  64 N64          -17.3311    -3.3478    -3.8022 N.pl3   
  65 C65          -23.9393     4.5144    -4.6728 C.2     
  66 O66          -23.5872     3.5866    -3.9757 O.2     
  67 N67          -21.9338     4.0505    -5.9580 N.am    
  68 C68          -23.1070     4.9225    -5.8610 C.3     
  69 C69          -23.9427     4.7968    -7.1364 C.3     
  70 C70          -23.1555     5.3270    -8.3070 C.2     
  71 O71          -22.0076     5.6866    -8.1529 O.2     
  72 N72          -23.7272     5.4014    -9.5252 N.am    
  73 C73          -27.3142     5.2052    -3.4498 C.2     
  74 O74          -27.6268     5.7802    -4.4708 O.2     
  75 N75          -25.0750     5.1805    -4.3849 N.am    
  76 C76          -25.8842     4.7838    -3.2298 C.3     
  77 C77          -25.3410     5.4610    -1.9699 C.3     
  78 C78          -23.9544     4.9463    -1.6810 C.ar    
  79 C79          -22.8542     5.5869    -2.2203 C.ar    
  80 C80          -21.5821     5.1167    -1.9574 C.ar    
  81 C81          -21.4090     4.0011    -1.1511 C.ar    
  82 O82          -20.1586     3.5369    -0.8906 O.3     
  83 C83          -22.5146     3.3604    -0.6108 C.ar    
  84 C84          -23.7843     3.8376    -0.8726 C.ar    
  85 C85          -30.3199     5.5238    -1.3937 C.2     
  86 O86          -29.7064     5.3233    -0.3669 O.2     
  87 N87          -28.2459     4.9430    -2.5118 N.am    
  88 C88          -29.6361     5.3526    -2.7257 C.3     
  89 C89          -30.3644     4.2805    -3.5387 C.3     
  90 C90          -30.3349     2.9544    -2.7762 C.3     
  91 C91          -31.1684     1.9149    -3.5284 C.3     
  92 C92          -29.6701     4.1067    -4.8911 C.3     
  93 C93          -33.7634     5.8768    -0.2185 C.2     
  94 O94          -34.2216     5.6275    -1.3134 O.2     
  95 N95          -31.6132     5.8996    -1.3435 N.am    
  96 C96          -32.2780     6.0660    -0.0486 C.3     
  97 C97          -32.0011     7.4710     0.4900 C.3     
  98 C98          -30.5288     7.6183     0.7758 C.2     
  99 C99          -29.7192     8.5759     0.2847 C.2     
 100 N100         -28.4713     8.3396     0.7951 N.pl3   
 101 C101         -28.5618     7.2451     1.5809 C.2     
 102 N102         -29.7963     6.8221     1.5685 N.2     
 103 C103         -36.7552     6.5374     1.7754 C.2     
 104 O104         -36.1298     7.1552     2.6110 O.2     
 105 N105         -34.5826     5.9846     0.8463 N.am    
 106 C106         -36.0266     5.8008     0.6811 C.3     
 107 C107         -36.3630     4.3102     0.7582 C.3     
 108 C108         -35.7241     3.5813    -0.4257 C.3     
 109 S109         -36.1230     1.8140    -0.3343 S.3     
 110 C110         -35.2925     1.1322    -1.7957 C.3     
 111 C111         -40.1561     6.5869     3.1150 C.2     
 112 O112         -40.4908     5.6277     2.4525 O.2     
 113 N113         -38.1017     6.5097     1.8255 N.am    
 114 C114         -38.8100     7.2259     2.8893 C.3     
 115 C115         -39.0016     8.6876     2.4801 C.3     
 116 C116         -37.6570     9.3598     2.3738 C.2     
 117 C117         -37.1819    10.0133     1.2963 C.2     
 118 N118         -35.9334    10.4668     1.6269 N.pl3   
 119 C119         -35.6889    10.0743     2.8957 C.2     
 120 N120         -36.7261     9.4171     3.3376 N.2     
 121 C121         -43.2929     7.0293     3.2957 C.2     
 122 O122         -42.9456     7.8678     2.4981 O.2     
 123 N123         -40.9879     7.0813     4.0531 N.am    
 124 C124         -42.2964     6.4601     4.2725 C.3     
 125 C125         -42.7631     6.7451     5.7015 C.3     
 126 C126         -41.8191     6.0611     6.6923 C.3     
 127 C127         -42.2110     6.4473     8.1199 C.3     
 128 C128         -41.9205     4.5432     6.5286 C.3     
 129 O129         -44.5662     6.6048     3.3118 O.3     
 130 C130           6.6105     7.1700    -5.6177 C.2     
 131 O131           6.0764     7.3669    -4.5471 O.2     
 132 C132          15.6945    23.3666    -3.0997 C.3     
 133 C133          14.6880    22.3542    -2.5492 C.3     
 134 C134          14.5384    21.1953    -3.5368 C.3     
 135 C135          13.5319    20.1829    -2.9864 C.3     
 136 C136          13.3823    19.0239    -3.9740 C.3     
 137 C137          12.3758    18.0115    -3.4236 C.3     
 138 C138          12.2262    16.8526    -4.4111 C.3     
 139 C139          11.2197    15.8402    -3.8607 C.3     
 140 C140          11.0701    14.6812    -4.8483 C.3     
 141 C141          10.0636    13.6688    -4.2979 C.3     
 142 C142           9.9140    12.5099    -5.2855 C.3     
 143 C143           8.9075    11.4975    -4.7351 C.3     
 144 C144           8.7579    10.3385    -5.7226 C.3     
 145 C145           7.7515     9.3261    -5.1722 C.3     
 146 C146           7.6019     8.1672    -6.1598 C.3     
 147 H147           2.3187     4.6379     0.8849 H       
 148 H148           2.8162     3.3192     0.0021 H       
 149 H149           1.2778     5.6167    -1.0214 H       
 150 H150           2.3029     3.0752    -2.3626 H       
 151 H151           1.1627     4.2213    -3.1074 H       
 152 H152           2.8351     6.0370    -2.8735 H       
 153 H153           3.9753     4.8910    -2.1287 H       
 154 H154           3.9443     3.5182    -4.1934 H       
 155 H155           2.8041     4.6643    -4.9383 H       
 156 H156           5.0722     6.1044    -4.0673 H       
 157 H157           5.3389     4.0789    -7.5032 H       
 158 H158           6.7946     5.8672    -7.1452 H       
 159 H159          -0.9969     4.8899    -1.7071 H       
 160 H160          -1.8562     2.3093    -0.6444 H       
 161 H161          -2.8400     4.9559     0.5115 H       
 162 H162          -3.6011     3.3757     0.8150 H       
 163 H163          -1.4735     2.5345     1.7712 H       
 164 H164          -0.7124     4.1147     1.4677 H       
 165 H165          -2.3740     5.2004     2.9540 H       
 166 H166          -3.1351     3.6203     3.2574 H       
 167 H167          -0.3889     3.4207     3.8860 H       
 168 H168          -0.8332     4.2794     7.2430 H       
 169 H169          -3.3331     5.0474     4.9721 H       
 170 H170          -2.8847     5.1418     6.5885 H       
 171 H171          -4.5650     2.4169    -0.8801 H       
 172 H172          -5.2270     3.9183    -3.3071 H       
 173 H173          -4.0431     1.8347    -4.0843 H       
 174 H174          -5.2914     0.8689    -3.2612 H       
 175 H175          -7.0342     2.0650    -4.6358 H       
 176 H176          -6.1943     3.2774    -6.6724 H       
 177 H177          -5.7873     4.1056    -5.1503 H       
 178 H178          -4.5448     3.1672    -6.0126 H       
 179 H179          -6.1528    -0.1527    -5.3091 H       
 180 H180          -6.5236     0.8469    -6.7344 H       
 181 H181          -4.8365     0.6425    -6.2053 H       
 182 H182          -7.6533     3.5807    -3.8523 H       
 183 H183          -9.2198     2.4170    -1.6799 H       
 184 H184          -9.1484     5.4211    -2.2086 H       
 185 H185         -10.3610     4.6021    -1.1951 H       
 186 H186          -7.3566     6.4934    -0.6863 H       
 187 H187          -6.1550     5.7309     1.4773 H       
 188 H188          -7.0323     3.4660     2.2775 H       
 189 H189         -11.7436     3.2014    -2.2068 H       
 190 H190         -12.1188     3.6078    -5.0742 H       
 191 H191         -13.3586     1.5252    -5.4190 H       
 192 H192         -11.7236     1.1386    -4.8311 H       
 193 H193         -13.4082    -0.0429    -3.6178 H       
 194 H194         -14.7734     3.3096    -5.4304 H       
 195 H195         -16.2267     4.0383    -3.0046 H       
 196 H196         -16.9869     6.2026    -3.8597 H       
 197 H197         -13.9523     5.9251    -4.0353 H       
 198 H198         -14.8419     7.4429    -3.7649 H       
 199 H199         -14.8889     6.1533    -2.5390 H       
 200 H200         -15.2619     5.6781    -6.1354 H       
 201 H201         -18.6870     4.6878    -3.8921 H       
 202 H202         -19.3101     3.2421    -6.3516 H       
 203 H203         -20.2685     2.2906    -3.6157 H       
 204 H204         -20.9225     1.7203    -5.1698 H       
 205 H205         -18.6666     0.9301    -5.8292 H       
 206 H206         -18.0126     1.5003    -4.2751 H       
 207 H207         -19.5400    -0.0359    -3.0686 H       
 208 H208         -20.1940    -0.6061    -4.6227 H       
 209 H209         -17.3884    -0.9269    -4.6664 H       
 210 H210         -19.5724    -3.6692    -2.7410 H       
 211 H211         -16.5040    -3.0968    -4.2423 H       
 212 H212         -17.4327    -4.2389    -3.4325 H       
 213 H213         -21.9789     3.2328    -6.4777 H       
 214 H214         -22.7825     5.9560    -5.7396 H       
 215 H215         -24.1879     3.7487    -7.3083 H       
 216 H216         -24.8621     5.3718    -7.0265 H       
 217 H217         -24.6453     5.1137    -9.6485 H       
 218 H218         -23.2205     5.7427   -10.2787 H       
 219 H219         -25.3567     5.9226    -4.9425 H       
 220 H220         -25.8388     3.7015    -3.1089 H       
 221 H221         -25.3034     6.5393    -2.1245 H       
 222 H222         -25.9946     5.2374    -1.1268 H       
 223 H223         -22.9894     6.4553    -2.8479 H       
 224 H224         -20.7230     5.6171    -2.3794 H       
 225 H225         -19.7515     3.9240    -0.1035 H       
 226 H226         -22.3825     2.4915     0.0168 H       
 227 H227         -24.6451     3.3418    -0.4487 H       
 228 H228         -27.9959     4.4831    -1.6952 H       
 229 H229         -29.6571     6.2973    -3.2689 H       
 230 H230         -31.3987     4.5852    -3.6978 H       
 231 H231         -29.3057     2.6049    -2.6946 H       
 232 H232         -30.7494     3.0996    -1.7786 H       
 233 H233         -32.1976     2.2644    -3.6100 H       
 234 H234         -30.7538     1.7697    -4.5260 H       
 235 H235         -31.1474     0.9702    -2.9852 H       
 236 H236         -28.6358     3.8019    -4.7320 H       
 237 H237         -30.1890     3.3429    -5.4703 H       
 238 H238         -29.6911     5.0514    -5.4343 H       
 239 H239         -32.1039     6.0599    -2.1647 H       
 240 H240         -31.8954     5.3256     0.6540 H       
 241 H241         -32.3030     8.2105    -0.2518 H       
 242 H242         -32.5668     7.6260     1.4087 H       
 243 H243         -30.0005     9.3763    -0.3837 H       
 244 H244         -27.6714     8.8610     0.6243 H       
 245 H245         -27.7482     6.7966     2.1316 H       
 246 H246         -34.2161     6.1840     1.7219 H       
 247 H247         -36.3343     6.1930    -0.2882 H       
 248 H248         -35.9762     3.8981     1.6902 H       
 249 H249         -37.4446     4.1796     0.7244 H       
 250 H250         -36.1109     3.9933    -1.3577 H       
 251 H251         -34.6425     3.7119    -0.3919 H       
 252 H252         -35.4667     0.0573    -1.8442 H       
 253 H253         -35.6901     1.6055    -2.6935 H       
 254 H254         -34.2216     1.3240    -1.7277 H       
 255 H255         -38.6019     6.0156     1.1572 H       
 256 H256         -38.2270     7.1795     3.8091 H       
 257 H257         -39.5071     8.7316     1.5154 H       
 258 H258         -39.6051     9.1988     3.2301 H       
 259 H259         -37.6885    10.1525     0.3527 H       
 260 H260         -35.3360    10.9751     1.0563 H       
 261 H261         -34.7861    10.2747     3.4536 H       
 262 H262         -40.7202     7.8484     4.5830 H       
 263 H263         -42.2168     5.3832     4.1243 H       
 264 H264         -42.7576     7.8207     5.8778 H       
 265 H265         -43.7737     6.3599     5.8373 H       
 266 H266         -40.7951     6.3799     6.4978 H       
 267 H267         -43.2350     6.1285     8.3144 H       
 268 H268         -41.5384     5.9600     8.8258 H       
 269 H269         -42.1388     7.5286     8.2366 H       
 270 H270         -41.6413     4.2681     5.5115 H       
 271 H271         -41.2479     4.0559     7.2344 H       
 272 H272         -42.9445     4.2244     6.7231 H       
 273 H273         -45.1685     6.9991     2.6662 H       
 274 H274          15.8011    24.1923    -2.3961 H       
 275 H275          16.6601    22.8804    -3.2382 H       
 276 H276          15.3393    23.7484    -4.0568 H       
 277 H277          15.0432    21.9724    -1.5921 H       
 278 H278          13.7223    22.8405    -2.4107 H       
 279 H279          14.1832    21.5771    -4.4940 H       
 280 H280          15.5040    20.7090    -3.6754 H       
 281 H281          13.8871    19.8011    -2.0292 H       
 282 H282          12.5663    20.6691    -2.8479 H       
 283 H283          13.0271    19.4057    -4.9311 H       
 284 H284          14.3480    18.5377    -4.1125 H       
 285 H285          12.7310    17.6297    -2.4664 H       
 286 H286          11.4102    18.4978    -3.2850 H       
 287 H287          11.8710    17.2344    -5.3683 H       
 288 H288          13.1919    16.3663    -4.5497 H       
 289 H289          11.5749    15.4584    -2.9036 H       
 290 H290          10.2541    16.3264    -3.7222 H       
 291 H291          10.7149    15.0630    -5.8055 H       
 292 H292          12.0358    14.1950    -4.9868 H       
 293 H293          10.4188    13.2870    -3.3407 H       
 294 H294           9.0980    14.1551    -4.1594 H       
 295 H295           9.5589    12.8917    -6.2426 H       
 296 H296          10.8797    12.0236    -5.4240 H       
 297 H297           9.2627    11.1157    -3.7779 H       
 298 H298           7.9419    11.9837    -4.5965 H       
 299 H299           8.4028    10.7203    -6.6798 H       
 300 H300           9.7236     9.8523    -5.8612 H       
 301 H301           8.1066     8.9443    -4.2151 H       
 302 H302           6.7858     9.8124    -5.0337 H       
 303 H303           8.5675     7.6809    -6.2983 H       
 304 H304           7.2467     8.5490    -7.1170 H       
@<TRIPOS>BOND
   1    1    2 2
   2    1    4 1
   3    1   14 am
   4    3    4 1
   5    3  147 1
   6    3  148 1
   7    4    5 1
   8    4  149 1
   9    5    6 1
  10    5  150 1
  11    5  151 1
  12    6    7 1
  13    6  152 1
  14    6  153 1
  15    7    8 1
  16    7  154 1
  17    7  155 1
  18    8    9 1
  19    8  156 1
  20    9   10 2
  21    9   11 1
  22   10  157 1
  23   11  130 am
  24   11  158 1
  25   12   13 2
  26   12   15 1
  27   12   25 am
  28   14   15 1
  29   14  159 1
  30   15   16 1
  31   15  160 1
  32   16   17 1
  33   16  161 1
  34   16  162 1
  35   17   18 1
  36   17  163 1
  37   17  164 1
  38   18   19 1
  39   18  165 1
  40   18  166 1
  41   19   20 1
  42   19  167 1
  43   20   21 2
  44   20   22 1
  45   21  168 1
  46   22  169 1
  47   22  170 1
  48   23   24 2
  49   23   26 1
  50   23   33 am
  51   25   26 1
  52   25  171 1
  53   26   27 1
  54   26  172 1
  55   27   28 1
  56   27  173 1
  57   27  174 1
  58   28   29 1
  59   28   30 1
  60   28  175 1
  61   29  176 1
  62   29  177 1
  63   29  178 1
  64   30  179 1
  65   30  180 1
  66   30  181 1
  67   31   32 2
  68   31   34 1
  69   31   43 am
  70   33   34 1
  71   33  182 1
  72   34   35 1
  73   34  183 1
  74   35   36 1
  75   35  184 1
  76   35  185 1
  77   36   37 2
  78   36   40 1
  79   37   38 1
  80   37  186 1
  81   38   39 1
  82   38  187 1
  83   39   40 2
  84   39  188 1
  85   41   42 2
  86   41   44 1
  87   41   49 am
  88   43   44 1
  89   43  189 1
  90   44   45 1
  91   44  190 1
  92   45   46 1
  93   45  191 1
  94   45  192 1
  95   46  193 1
  96   47   48 2
  97   47   50 1
  98   47   56 am
  99   49   50 1
 100   49  194 1
 101   50   51 1
 102   50  195 1
 103   51   52 1
 104   51   53 1
 105   51  196 1
 106   52  197 1
 107   52  198 1
 108   52  199 1
 109   53  200 1
 110   54   55 2
 111   54   57 1
 112   54   67 am
 113   56   57 1
 114   56  201 1
 115   57   58 1
 116   57  202 1
 117   58   59 1
 118   58  203 1
 119   58  204 1
 120   59   60 1
 121   59  205 1
 122   59  206 1
 123   60   61 1
 124   60  207 1
 125   60  208 1
 126   61   62 1
 127   61  209 1
 128   62   63 2
 129   62   64 1
 130   63  210 1
 131   64  211 1
 132   64  212 1
 133   65   66 2
 134   65   68 1
 135   65   75 am
 136   67   68 1
 137   67  213 1
 138   68   69 1
 139   68  214 1
 140   69   70 1
 141   69  215 1
 142   69  216 1
 143   70   71 2
 144   70   72 am
 145   72  217 1
 146   72  218 1
 147   73   74 2
 148   73   76 1
 149   73   87 am
 150   75   76 1
 151   75  219 1
 152   76   77 1
 153   76  220 1
 154   77   78 1
 155   77  221 1
 156   77  222 1
 157   78   79 ar
 158   78   84 ar
 159   79   80 ar
 160   79  223 1
 161   80   81 ar
 162   80  224 1
 163   81   82 1
 164   81   83 ar
 165   82  225 1
 166   83   84 ar
 167   83  226 1
 168   84  227 1
 169   85   86 2
 170   85   88 1
 171   85   95 am
 172   87   88 1
 173   87  228 1
 174   88   89 1
 175   88  229 1
 176   89   90 1
 177   89   92 1
 178   89  230 1
 179   90   91 1
 180   90  231 1
 181   90  232 1
 182   91  233 1
 183   91  234 1
 184   91  235 1
 185   92  236 1
 186   92  237 1
 187   92  238 1
 188   93   94 2
 189   93   96 1
 190   93  105 am
 191   95   96 1
 192   95  239 1
 193   96   97 1
 194   96  240 1
 195   97   98 1
 196   97  241 1
 197   97  242 1
 198   98   99 2
 199   98  102 1
 200   99  100 1
 201   99  243 1
 202  100  101 1
 203  100  244 1
 204  101  102 2
 205  101  245 1
 206  103  104 2
 207  103  106 1
 208  103  113 am
 209  105  106 1
 210  105  246 1
 211  106  107 1
 212  106  247 1
 213  107  108 1
 214  107  248 1
 215  107  249 1
 216  108  109 1
 217  108  250 1
 218  108  251 1
 219  109  110 1
 220  110  252 1
 221  110  253 1
 222  110  254 1
 223  111  112 2
 224  111  114 1
 225  111  123 am
 226  113  114 1
 227  113  255 1
 228  114  115 1
 229  114  256 1
 230  115  116 1
 231  115  257 1
 232  115  258 1
 233  116  117 2
 234  116  120 1
 235  117  118 1
 236  117  259 1
 237  118  119 1
 238  118  260 1
 239  119  120 2
 240  119  261 1
 241  121  122 2
 242  121  124 1
 243  121  129 1
 244  123  124 1
 245  123  262 1
 246  124  125 1
 247  124  263 1
 248  125  126 1
 249  125  264 1
 250  125  265 1
 251  126  127 1
 252  126  128 1
 253  126  266 1
 254  127  267 1
 255  127  268 1
 256  127  269 1
 257  128  270 1
 258  128  271 1
 259  128  272 1
 260  129  273 1
 261  130  131 2
 262  130  146 1
 263  132  133 1
 264  132  274 1
 265  132  275 1
 266  132  276 1
 267  133  134 1
 268  133  277 1
 269  133  278 1
 270  134  135 1
 271  134  279 1
 272  134  280 1
 273  135  136 1
 274  135  281 1
 275  135  282 1
 276  136  137 1
 277  136  283 1
 278  136  284 1
 279  137  138 1
 280  137  285 1
 281  137  286 1
 282  138  139 1
 283  138  287 1
 284  138  288 1
 285  139  140 1
 286  139  289 1
 287  139  290 1
 288  140  141 1
 289  140  291 1
 290  140  292 1
 291  141  142 1
 292  141  293 1
 293  141  294 1
 294  142  143 1
 295  142  295 1
 296  142  296 1
 297  143  144 1
 298  143  297 1
 299  143  298 1
 300  144  145 1
 301  144  299 1
 302  144  300 1
 303  145  146 1
 304  145  301 1
 305  145  302 1
 306  146  303 1
 307  146  304 1

#	End of record

