#	Name: ASD03092991
#	Creating user name:	WinNT
#	Creation time:	15. 06. 2019 20:33

#	Modifying user name:	WinNT
#	Modification time:	15. 06. 2019 20:33

#	Program:	/corina/corina34_cracker 3.40 0067  02.08.2006

@<TRIPOS>MOLECULE
ASD03092991
  42   45    0    0    0
SMALL
NO_CHARGES


@<TRIPOS>ATOM
   1 C1            -0.0184     1.5028     0.0103 C.3     
   2 C2             0.0021    -0.0041     0.0020 C.2     
   3 N3            -1.0410    -0.7962     0.0024 N.2     
   4 C4            -0.5424    -2.0531    -0.0075 C.2     
   5 N5             0.7612    -1.9513    -0.0133 N.2     
   6 O6             1.0880    -0.7833    -0.0130 O.3     
   7 C7            -1.3279    -3.3125    -0.0107 C.ar    
   8 C8            -2.7202    -3.2680    -0.0090 C.ar    
   9 C9            -3.4458    -4.4423    -0.0124 C.ar    
  10 C10           -2.7929    -5.6615    -0.0172 C.ar    
  11 C11           -1.4103    -5.7115    -0.0189 C.ar    
  12 C12           -0.6752    -4.5436    -0.0213 C.ar    
  13 C13           -0.7059    -7.0437    -0.0236 C.3     
  14 H14            0.2975    -7.0434    -0.4494 H       
  15 C15           -1.5617    -8.2946    -0.2326 C.3     
  16 C16           -0.9757    -7.9896     1.1483 C.3     
  17 H17           -1.6628    -7.6484     1.9226 H       
  18 C18            0.1659    -8.8500     1.6252 C.ar    
  19 C19            0.7658    -9.7447     0.7588 C.ar    
  20 C20            1.8130   -10.5340     1.1962 C.ar    
  21 C21            2.2606   -10.4282     2.4998 C.ar    
  22 C22            1.6613    -9.5329     3.3659 C.ar    
  23 C23            0.6169    -8.7406     2.9273 C.ar    
  24 S24            3.5947   -11.4351     3.0577 S.o2    
  25 N25            4.9943   -10.5983     2.7691 N.am    
  26 O26            3.4655   -11.5260     4.4699 O.2     
  27 O27            3.6235   -12.5715     2.2050 O.2     
  28 H28            1.0042     1.8801     0.0026 H       
  29 H29           -0.5455     1.8639    -0.8728 H       
  30 H30           -0.5286     1.8543     0.9071 H       
  31 H31           -3.2310    -2.3165    -0.0045 H       
  32 H32           -4.5252    -4.4090    -0.0111 H       
  33 H33           -3.3644    -6.5779    -0.0191 H       
  34 H34            0.4041    -4.5837    -0.0268 H       
  35 H35           -2.6342    -8.1540    -0.3667 H       
  36 H36           -1.1212    -9.1175    -0.7955 H       
  37 H37            0.4161    -9.8274    -0.2596 H       
  38 H38            2.2812   -11.2335     0.5196 H       
  39 H39            2.0108    -9.4505     4.3844 H       
  40 H40            0.1512    -8.0383     3.6028 H       
  41 H41            4.9584    -9.7192     2.3608 H       
  42 H42            5.8501   -10.9873     3.0084 H       
@<TRIPOS>BOND
   1    1    2 1
   2    1   28 1
   3    1   29 1
   4    1   30 1
   5    2    6 1
   6    2    3 2
   7    3    4 1
   8    4    5 2
   9    4    7 1
  10    5    6 1
  11    7   12 ar
  12    7    8 ar
  13    8    9 ar
  14    8   31 1
  15    9   10 ar
  16    9   32 1
  17   10   11 ar
  18   10   33 1
  19   11   12 ar
  20   11   13 1
  21   12   34 1
  22   13   14 1
  23   13   16 1
  24   13   15 1
  25   15   16 1
  26   15   35 1
  27   15   36 1
  28   16   17 1
  29   16   18 1
  30   18   23 ar
  31   18   19 ar
  32   19   20 ar
  33   19   37 1
  34   20   21 ar
  35   20   38 1
  36   21   22 ar
  37   21   24 1
  38   22   23 ar
  39   22   39 1
  40   23   40 1
  41   24   25 am
  42   24   26 2
  43   24   27 2
  44   25   41 1
  45   25   42 1

#	End of record

