#	Name: ASD01910444
#	Creating user name:	WinNT
#	Creation time:	15. 06. 2019 19:55

#	Modifying user name:	WinNT
#	Modification time:	15. 06. 2019 19:55

#	Program:	/corina/corina34_cracker 3.40 0067  02.08.2006

@<TRIPOS>MOLECULE
ASD01910444
  50   53    0    0    0
SMALL
NO_CHARGES


@<TRIPOS>ATOM
   1 C1             0.0205     1.3078    -0.0745 C.ar    
   2 C2             0.0531    -0.0775    -0.0829 C.ar    
   3 C3             1.2668    -0.7460    -0.0858 C.ar    
   4 C4             2.4486    -0.0342    -0.0799 C.ar    
   5 C5             2.4205     1.3590    -0.0715 C.ar    
   6 C6             1.1976     2.0273    -0.0691 C.ar    
   7 F7            -1.1019    -0.7784    -0.0878 F       
   8 C8             3.6890     2.1288    -0.0647 C.2     
   9 N9             3.8108     3.4755    -0.0563 N.2     
  10 C10            5.0989     3.7122    -0.0519 C.2     
  11 O11            5.7170     2.5270    -0.0576 O.3     
  12 N12            4.8987     1.6318    -0.0599 N.2     
  13 C13            5.7601     5.0664    -0.0426 C.3     
  14 C14            6.6294     5.2019     1.2096 C.3     
  15 C15            7.2753     6.5890     1.2366 C.3     
  16 C16            8.1719     6.7545     0.0055 C.3     
  17 N17            7.3757     6.4829    -1.1992 N.am    
  18 C18            6.6394     5.2146    -1.2883 C.3     
  19 C19            7.3219     7.3802    -2.2034 C.2     
  20 C20            7.9910     8.6908    -2.0603 C.ar    
  21 O21            6.7234     7.1119    -3.2267 O.2     
  22 C22            9.3490     8.7538    -1.7450 C.ar    
  23 C23            9.9673     9.9802    -1.6128 C.ar    
  24 C24            9.2440    11.1457    -1.7922 C.ar    
  25 C25            7.8971    11.0903    -2.1046 C.ar    
  26 C26            7.2683     9.8707    -2.2457 C.ar    
  27 C27            5.8014     9.8123    -2.5859 C.3     
  28 C28            4.9929     9.5493    -1.3139 C.3     
  29 H29           -0.9276     1.8249    -0.0768 H       
  30 H30            1.2877    -1.8258    -0.0923 H       
  31 H31            3.3942    -0.5560    -0.0815 H       
  32 H32            1.1714     3.1070    -0.0630 H       
  33 H33            4.9964     5.8442    -0.0412 H       
  34 H34            6.0102     5.0724     2.0972 H       
  35 H35            7.4078     4.4390     1.1956 H       
  36 H36            6.4977     7.3528     1.2257 H       
  37 H37            7.8756     6.6933     2.1404 H       
  38 H38            8.5560     7.7738    -0.0325 H       
  39 H39            9.0023     6.0507     0.0610 H       
  40 H40            7.3449     4.3852    -1.3383 H       
  41 H41            6.0124     5.2180    -2.1799 H       
  42 H42            9.9146     7.8445    -1.6043 H       
  43 H43           11.0181    10.0303    -1.3685 H       
  44 H44            9.7327    12.1031    -1.6877 H       
  45 H45            7.3381    12.0039    -2.2430 H       
  46 H46            5.4918    10.7613    -3.0235 H       
  47 H47            5.6259     9.0082    -3.3006 H       
  48 H48            3.9319     9.5070    -1.5599 H       
  49 H49            5.3025     8.6002    -0.8763 H       
  50 H50            5.1683    10.3533    -0.5991 H       
@<TRIPOS>BOND
   1    1    2 ar
   2    1    6 ar
   3    1   29 1
   4    2    3 ar
   5    2    7 1
   6    3    4 ar
   7    3   30 1
   8    4    5 ar
   9    4   31 1
  10    5    6 ar
  11    5    8 1
  12    6   32 1
  13    8    9 1
  14    8   12 2
  15    9   10 2
  16   10   11 1
  17   10   13 1
  18   11   12 1
  19   13   14 1
  20   13   18 1
  21   13   33 1
  22   14   15 1
  23   14   34 1
  24   14   35 1
  25   15   16 1
  26   15   36 1
  27   15   37 1
  28   16   17 1
  29   16   38 1
  30   16   39 1
  31   17   18 1
  32   17   19 am
  33   18   40 1
  34   18   41 1
  35   19   20 1
  36   19   21 2
  37   20   22 ar
  38   20   26 ar
  39   22   23 ar
  40   22   42 1
  41   23   24 ar
  42   23   43 1
  43   24   25 ar
  44   24   44 1
  45   25   26 ar
  46   25   45 1
  47   26   27 1
  48   27   28 1
  49   27   46 1
  50   27   47 1
  51   28   48 1
  52   28   49 1
  53   28   50 1

#	End of record

