#	Name: ASD07930085
#	Creating user name:	WinNT
#	Creation time:	15. 06. 2019 21:11

#	Modifying user name:	WinNT
#	Modification time:	15. 06. 2019 21:11

#	Program:	/corina/corina34_cracker 3.40 0067  02.08.2006

@<TRIPOS>MOLECULE
ASD07930085
  43   46    0    0    0
SMALL
NO_CHARGES


@<TRIPOS>ATOM
   1 C1             0.0021    -0.0041     0.0020 C.1     
   2 C2            -0.0173     1.4278     0.0099 C.ar    
   3 C3             1.1780     2.1542     0.0024 C.ar    
   4 C4             1.1024     3.5468     0.0101 C.ar    
   5 C5            -0.1514     4.1571     0.0249 C.ar    
   6 N6            -1.2551     3.4372     0.0320 N.ar    
   7 C7            -1.2300     2.1203     0.0193 C.ar    
   8 N8             0.0175    -1.1399    -0.0042 N.1     
   9 C9             2.3387     4.3675     0.0032 C.ar    
  10 C10            2.2541     5.7586     0.0109 C.ar    
  11 C11            3.4060     6.5177     0.0049 C.ar    
  12 C12            4.6458     5.8991    -0.0088 C.ar    
  13 C13            4.7345     4.5167    -0.0166 C.ar    
  14 C14            3.5874     3.7496    -0.0053 C.ar    
  15 F15            5.7714     6.6462    -0.0151 F       
  16 S16            2.0279     9.8866     2.2612 S.3     
  17 C17            1.2900     9.1852     0.8242 C.2     
  18 N18            1.9355     8.4437     0.0098 N.2     
  19 C19            3.3157     8.0220     0.0128 C.3     
  20 C20            4.1652     8.6228     1.1416 C.3     
  21 C21            3.4130     8.7346     2.4529 C.3     
  22 O22            4.7091     9.7908    -0.8370 O.3     
  23 C23            3.9997     8.6150    -1.2470 C.3     
  24 C24            4.5219    10.0110     0.5725 C.3     
  25 C25            5.8132    10.5315     1.2070 C.3     
  26 N26           -0.0361     9.4470     0.5689 N.pl3   
  27 H27            2.1333     1.6505    -0.0087 H       
  28 H28           -0.2188     5.2350     0.0309 H       
  29 H29           -2.1588     1.5692     0.0207 H       
  30 H30            1.2882     6.2415     0.0213 H       
  31 H31            5.7028     4.0385    -0.0277 H       
  32 H32            3.6574     2.6719    -0.0073 H       
  33 H33            5.0684     8.0291     1.2821 H       
  34 H34            4.0862     9.1019     3.2275 H       
  35 H35            3.0326     7.7537     2.7380 H       
  36 H36            4.6968     7.8894    -1.6661 H       
  37 H37            3.2455     8.8775    -1.9889 H       
  38 H38            3.7048    10.7123     0.7421 H       
  39 H39            6.6278     9.8399     0.9924 H       
  40 H40            6.0510    11.5121     0.7947 H       
  41 H41            5.6806    10.6134     2.2858 H       
  42 H42           -0.5452    10.0080     1.1748 H       
  43 H43           -0.4622     9.0706    -0.2171 H       
@<TRIPOS>BOND
   1    1    2 1
   2    1    8 3
   3    2    3 ar
   4    2    7 ar
   5    3    4 ar
   6    3   27 1
   7    4    5 ar
   8    4    9 1
   9    5    6 ar
  10    5   28 1
  11    6    7 ar
  12    7   29 1
  13    9   10 ar
  14    9   14 ar
  15   10   11 ar
  16   10   30 1
  17   11   12 ar
  18   11   19 1
  19   12   13 ar
  20   12   15 1
  21   13   14 ar
  22   13   31 1
  23   14   32 1
  24   16   17 1
  25   16   21 1
  26   17   18 2
  27   17   26 1
  28   18   19 1
  29   19   23 1
  30   19   20 1
  31   20   21 1
  32   20   24 1
  33   20   33 1
  34   21   34 1
  35   21   35 1
  36   22   23 1
  37   22   24 1
  38   23   36 1
  39   23   37 1
  40   24   25 1
  41   24   38 1
  42   25   39 1
  43   25   40 1
  44   25   41 1
  45   26   42 1
  46   26   43 1

#	End of record

