#	Name: ASD00170717
#	Creating user name:	WinNT
#	Creation time:	15. 06. 2019 18:32

#	Modifying user name:	WinNT
#	Modification time:	15. 06. 2019 18:32

#	Program:	/corina/corina34_cracker 3.40 0067  02.08.2006

@<TRIPOS>MOLECULE
ASD00170717
  33   35    0    0    0
SMALL
NO_CHARGES


@<TRIPOS>ATOM
   1 C1            -0.0144     1.2135     0.0087 C.2     
   2 O2            -0.1258     0.0037     0.0915 O.2     
   3 C3             1.3283     1.8302    -0.0463 C.ar    
   4 C4             2.4015     1.2332     0.6178 C.ar    
   5 C5             3.6514     1.8131     0.5628 C.ar    
   6 C6             3.8432     2.9858    -0.1490 C.ar    
   7 C7             2.7821     3.5830    -0.8095 C.ar    
   8 C8             1.5291     3.0089    -0.7673 C.ar    
   9 Cl9            5.4195     3.7103    -0.2131 Cl      
  10 C10           -2.4914     1.5580    -0.1265 C.2     
  11 C11           -1.2097     2.0566    -0.0423 C.2     
  12 C12           -1.1715     3.4993    -0.0094 C.2     
  13 C13           -2.3876     4.0562    -0.0673 C.2     
  14 S14           -3.6321     2.8234    -0.1650 S.3     
  15 C15           -2.6465     5.5110    -0.0504 C.ar    
  16 C16           -3.9558     5.9909    -0.1153 C.ar    
  17 C17           -4.1904     7.3502    -0.0991 C.ar    
  18 C18           -3.1316     8.2373    -0.0187 C.ar    
  19 C19           -1.8314     7.7683     0.0455 C.ar    
  20 C20           -1.5831     6.4114     0.0364 C.ar    
  21 N21           -2.8077     0.2175    -0.1784 N.pl3   
  22 H22            2.2530     0.3192     1.1736 H       
  23 H23            4.4824     1.3522     1.0761 H       
  24 H24            2.9375     4.4977    -1.3623 H       
  25 H25            0.7037     3.4726    -1.2870 H       
  26 H26           -0.2569     4.0700     0.0552 H       
  27 H27           -4.7832     5.2996    -0.1784 H       
  28 H28           -5.2028     7.7229    -0.1497 H       
  29 H29           -3.3207     9.3005    -0.0064 H       
  30 H30           -1.0094     8.4661     0.1073 H       
  31 H31           -0.5681     6.0465     0.0918 H       
  32 H32           -2.1027    -0.4484    -0.1562 H       
  33 H33           -3.7353    -0.0600    -0.2372 H       
@<TRIPOS>BOND
   1    1    2 2
   2    1    3 1
   3    1   11 1
   4    3    4 ar
   5    3    8 ar
   6    4    5 ar
   7    4   22 1
   8    5    6 ar
   9    5   23 1
  10    6    7 ar
  11    6    9 1
  12    7    8 ar
  13    7   24 1
  14    8   25 1
  15   10   11 2
  16   10   14 1
  17   10   21 1
  18   11   12 1
  19   12   13 2
  20   12   26 1
  21   13   14 1
  22   13   15 1
  23   15   16 ar
  24   15   20 ar
  25   16   17 ar
  26   16   27 1
  27   17   18 ar
  28   17   28 1
  29   18   19 ar
  30   18   29 1
  31   19   20 ar
  32   19   30 1
  33   20   31 1
  34   21   32 1
  35   21   33 1

#	End of record

