#	Name: ASD02408429
#	Creating user name:	WinNT
#	Creation time:	15. 06. 2019 20:21

#	Modifying user name:	WinNT
#	Modification time:	15. 06. 2019 20:21

#	Program:	/corina/corina34_cracker 3.40 0067  02.08.2006

@<TRIPOS>MOLECULE
ASD02408429
  40   43    0    0    0
SMALL
NO_CHARGES


@<TRIPOS>ATOM
   1 N1             0.0244     1.1715    -0.2536 N.am    
   2 C2             0.1435    -0.1803    -0.2535 C.2     
   3 N3             1.2912    -0.7914    -0.2946 N.2     
   4 C4             2.4511    -0.1183    -0.3407 C.2     
   5 C5             2.4285     1.2856    -0.3446 C.2     
   6 C6             1.1282     1.9539    -0.2979 C.2     
   7 N7             3.7606    -0.4854    -0.3895 N.pl3   
   8 N8             4.5415     0.6768    -0.4234 N.2     
   9 C9             3.7645     1.7251    -0.3973 C.2     
  10 C10           -1.1121    -1.0122    -0.2028 C.3     
  11 C11           -0.7506    -2.4910    -0.3559 C.3     
  12 C12            4.2448    -1.8007    -0.4028 C.ar    
  13 C13            5.1404    -2.2029    -1.3859 C.ar    
  14 C14            5.6161    -3.5007    -1.3964 C.ar    
  15 C15            5.2009    -4.3991    -0.4293 C.ar    
  16 C16            4.3086    -4.0016     0.5509 C.ar    
  17 C17            3.8345    -2.7034     0.5705 C.ar    
  18 O18            1.0418     3.1691    -0.2993 O.2     
  19 C19           -2.0036    -3.3627    -0.1618 C.3     
  20 C20           -2.2111    -4.1360    -1.4805 C.3     
  21 C21           -0.8046    -4.1661    -2.1285 C.3     
  22 C22           -0.2403    -2.7649    -1.7857 C.3     
  23 Cl23           2.7156    -2.2055     1.8009 Cl      
  24 Cl24           5.6610    -1.0768    -2.6002 Cl      
  25 Cl25           5.8001    -6.0284    -0.4461 Cl      
  26 H26           -0.8555     1.5788    -0.2259 H       
  27 H27            4.0911     2.7544    -0.4136 H       
  28 H28           -1.6120    -0.8575     0.7534 H       
  29 H29           -1.7777    -0.7151    -1.0131 H       
  30 H30            0.0121    -2.7660     0.3726 H       
  31 H31            6.3123    -3.8139    -2.1604 H       
  32 H32            3.9861    -4.7052     1.3041 H       
  33 H33           -1.8487    -4.0614     0.6603 H       
  34 H34           -2.8692    -2.7323     0.0415 H       
  35 H35           -2.5595    -5.1488    -1.2780 H       
  36 H36           -2.9165    -3.6103    -2.1240 H       
  37 H37           -0.1908    -4.9491    -1.6833 H       
  38 H38           -0.8793    -4.2990    -3.2078 H       
  39 H39           -0.6274    -2.0178    -2.4786 H       
  40 H40            0.8494    -2.7771    -1.8061 H       
@<TRIPOS>BOND
   1    1    2 1
   2    1    6 am
   3    1   26 1
   4    2    3 2
   5    2   10 1
   6    3    4 1
   7    4    5 2
   8    4    7 1
   9    5    6 1
  10    5    9 1
  11    6   18 2
  12    7    8 1
  13    7   12 1
  14    8    9 2
  15    9   27 1
  16   10   11 1
  17   10   28 1
  18   10   29 1
  19   11   19 1
  20   11   22 1
  21   11   30 1
  22   12   13 ar
  23   12   17 ar
  24   13   14 ar
  25   13   24 1
  26   14   15 ar
  27   14   31 1
  28   15   16 ar
  29   15   25 1
  30   16   17 ar
  31   16   32 1
  32   17   23 1
  33   19   20 1
  34   19   33 1
  35   19   34 1
  36   20   21 1
  37   20   35 1
  38   20   36 1
  39   21   22 1
  40   21   37 1
  41   21   38 1
  42   22   39 1
  43   22   40 1

#	End of record

