#	Name: ASD01884986
#	Creating user name:	WinNT
#	Creation time:	15. 06. 2019 19:49

#	Modifying user name:	WinNT
#	Modification time:	15. 06. 2019 19:49

#	Program:	/corina/corina34_cracker 3.40 0067  02.08.2006

@<TRIPOS>MOLECULE
ASD01884986
  40   43    0    0    0
SMALL
NO_CHARGES


@<TRIPOS>ATOM
   1 N1            -0.0168     1.3859     0.0097 N.pl3   
   2 C2             0.0021    -0.0041     0.0020 C.ar    
   3 C3            -1.2001    -0.7065     0.0039 C.ar    
   4 C4            -1.1756    -2.0863    -0.0041 C.ar    
   5 C5             0.0714    -2.7310    -0.0141 C.ar    
   6 C6             1.2339    -1.9565    -0.0154 C.ar    
   7 N7             1.1636    -0.6410    -0.0125 N.ar    
   8 C8             0.1505    -4.1607    -0.0222 C.1     
   9 C9             0.2153    -5.3329    -0.0289 C.1     
  10 C10            0.2944    -6.7627    -0.0371 C.2     
  11 C11           -0.7643    -7.6494    -0.0425 C.2     
  12 N12           -0.2729    -8.8848    -0.0503 N.2     
  13 C13            1.0547    -8.8413    -0.0501 C.2     
  14 N14            1.9733    -9.8180    -0.0569 N.2     
  15 C15            3.2553    -9.5437    -0.0559 C.2     
  16 C16            3.6956    -8.2027    -0.0470 C.2     
  17 C17            2.7657    -7.1997    -0.0401 C.2     
  18 N18            1.4433    -7.5263    -0.0471 N.pl3   
  19 C19            5.1455    -7.8858    -0.0448 C.ar    
  20 C20            5.7186    -7.2268    -1.1303 C.ar    
  21 C21            7.0676    -6.9342    -1.1237 C.ar    
  22 C22            7.8508    -7.2943    -0.0425 C.ar    
  23 C23            7.2871    -7.9499     1.0390 C.ar    
  24 Cl24           8.2772    -8.3991     2.3924 Cl      
  25 C25            5.9371    -8.2414     1.0453 C.ar    
  26 C26            9.3231    -6.9726    -0.0414 C.3     
  27 F27            9.6576    -6.3150    -1.2301 F       
  28 F28            9.6190    -6.1461     1.0479 F       
  29 F29           10.0594    -8.1579     0.0589 F       
  30 H30            0.8166     1.8823     0.0044 H       
  31 H31           -0.8633     1.8595     0.0163 H       
  32 H32           -2.1416    -0.1773     0.0120 H       
  33 H33           -2.0931    -2.6561    -0.0025 H       
  34 H34            2.1993    -2.4406    -0.0226 H       
  35 H35           -1.8114    -7.3848    -0.0405 H       
  36 H36            3.9773   -10.3469    -0.0614 H       
  37 H37            3.0751    -6.1650    -0.0329 H       
  38 H38            5.1083    -6.9455    -1.9758 H       
  39 H39            7.5124    -6.4233    -1.9649 H       
  40 H40            5.4969    -8.7485     1.8912 H       
@<TRIPOS>BOND
   1    1    2 1
   2    1   30 1
   3    1   31 1
   4    2    7 ar
   5    2    3 ar
   6    3    4 ar
   7    3   32 1
   8    4    5 ar
   9    4   33 1
  10    5    6 ar
  11    5    8 1
  12    6    7 ar
  13    6   34 1
  14    8    9 3
  15    9   10 1
  16   10   18 1
  17   10   11 2
  18   11   12 1
  19   11   35 1
  20   12   13 2
  21   13   18 1
  22   13   14 1
  23   14   15 2
  24   15   16 1
  25   15   36 1
  26   16   17 2
  27   16   19 1
  28   17   18 1
  29   17   37 1
  30   19   25 ar
  31   19   20 ar
  32   20   21 ar
  33   20   38 1
  34   21   22 ar
  35   21   39 1
  36   22   23 ar
  37   22   26 1
  38   23   24 1
  39   23   25 ar
  40   25   40 1
  41   26   27 1
  42   26   28 1
  43   26   29 1

#	End of record

