#	Name: ASD01911675
#	Creating user name:	WinNT
#	Creation time:	15. 06. 2019 19:58

#	Modifying user name:	WinNT
#	Modification time:	15. 06. 2019 19:58

#	Program:	/corina/corina34_cracker 3.40 0067  02.08.2006

@<TRIPOS>MOLECULE
ASD01911675
  38   41    0    0    0
SMALL
NO_CHARGES


@<TRIPOS>ATOM
   1 N1            -0.0068     1.3047     0.3236 N.am    
   2 C2             0.0021    -0.0041     0.0020 C.2     
   3 C3             1.2748    -0.7187    -0.1246 C.2     
   4 C4             1.4470    -2.0747    -0.0500 C.2     
   5 S5             2.8518     0.0159    -0.4072 S.3     
   6 C6             3.5963    -1.5802    -0.3909 C.2     
   7 N7             2.6740    -2.4890    -0.1928 N.2     
   8 C8             4.9923    -1.8438    -0.5711 C.1     
   9 C9             6.1367    -2.0599    -0.7188 C.1     
  10 C10            7.5327    -2.3234    -0.8990 C.ar    
  11 C11            8.0097    -3.6374    -0.8661 C.ar    
  12 C12            9.3552    -3.8832    -1.0409 C.ar    
  13 C13           10.2329    -2.8333    -1.2481 C.ar    
  14 C14            9.7684    -1.5301    -1.2820 C.ar    
  15 C15            8.4248    -1.2686    -1.1146 C.ar    
  16 O16           -1.0473    -0.5923    -0.1833 O.2     
  17 C17            1.2352     1.9996     0.6908 C.3     
  18 C18            0.9473     2.8461     1.9255 C.2     
  19 C19           -0.3014     3.0708     2.3764 C.2     
  20 C20           -1.5654     2.5231     1.7486 C.3     
  21 C21           -1.2585     2.0767     0.3105 C.3     
  22 C22            1.9381     3.4567     2.6878 C.2     
  23 C23            1.5094     4.1649     3.7278 C.2     
  24 S24           -0.2446     4.0945     3.8058 S.3     
  25 H25            0.6236    -2.7534     0.1160 H       
  26 H26            7.3261    -4.4576    -0.7038 H       
  27 H27            9.7252    -4.8975    -1.0157 H       
  28 H28           11.2857    -3.0321    -1.3836 H       
  29 H29           10.4595    -0.7160    -1.4437 H       
  30 H30            8.0638    -0.2511    -1.1412 H       
  31 H31            2.0134     1.2704     0.9164 H       
  32 H32            1.5560     2.6410    -0.1300 H       
  33 H33           -1.9211     1.6715     2.3286 H       
  34 H34           -2.3303     3.2995     1.7323 H       
  35 H35           -1.1473     2.9526    -0.3288 H       
  36 H36           -2.0705     1.4508    -0.0597 H       
  37 H37            2.9873     3.3611     2.4503 H       
  38 H38            2.1424     4.7018     4.4188 H       
@<TRIPOS>BOND
   1    1    2 am
   2    1   17 1
   3    1   21 1
   4    2    3 1
   5    2   16 2
   6    3    4 2
   7    3    5 1
   8    4    7 1
   9    4   25 1
  10    5    6 1
  11    6    7 2
  12    6    8 1
  13    8    9 3
  14    9   10 1
  15   10   11 ar
  16   10   15 ar
  17   11   12 ar
  18   11   26 1
  19   12   13 ar
  20   12   27 1
  21   13   14 ar
  22   13   28 1
  23   14   15 ar
  24   14   29 1
  25   15   30 1
  26   17   18 1
  27   17   31 1
  28   17   32 1
  29   18   19 2
  30   18   22 1
  31   19   20 1
  32   19   24 1
  33   20   21 1
  34   20   33 1
  35   20   34 1
  36   21   35 1
  37   21   36 1
  38   22   23 2
  39   22   37 1
  40   23   24 1
  41   23   38 1

#	End of record

