#	Name: ASD04880148
#	Creating user name:	WinNT
#	Creation time:	15. 06. 2019 20:52

#	Modifying user name:	WinNT
#	Modification time:	15. 06. 2019 20:52

#	Program:	/corina/corina34_cracker 3.40 0067  02.08.2006

@<TRIPOS>MOLECULE
ASD04880148
  55   57    0    0    0
SMALL
NO_CHARGES


@<TRIPOS>ATOM
   1 C1            -0.0144     1.2118     0.0087 C.2     
   2 O2             0.0576    -0.0018    -0.0141 O.2     
   3 C3             1.2189     2.0259    -0.0194 C.ar    
   4 C4             2.4670     1.4092     0.0723 C.ar    
   5 C5             3.6191     2.1796     0.0452 C.ar    
   6 C6             3.5283     3.5619    -0.0730 C.ar    
   7 C7             2.2918     4.1727    -0.1639 C.ar    
   8 C8             1.1390     3.4141    -0.1436 C.ar    
   9 N9             4.8714     1.5672     0.1372 N.pl3   
  10 C10            4.9671     0.1106     0.2622 C.3     
  11 C11            6.0890     2.3814     0.1085 C.3     
  12 N12           -1.2190     1.8146     0.0541 N.am    
  13 N13           -1.4352     3.1838     0.1960 N.2     
  14 C14           -2.6787     3.5213     0.2126 C.2     
  15 C15           -3.5392     2.2865     0.0684 C.3     
  16 C16           -2.5205     1.1350    -0.0445 C.3     
  17 C17           -4.4280     2.1048     1.3004 C.3     
  18 C18           -4.3895     2.3701    -1.2009 C.3     
  19 C19           -3.1844     4.8991     0.3509 C.ar    
  20 C20           -2.2888     5.9647     0.4772 C.ar    
  21 C21           -2.7683     7.2543     0.6067 C.ar    
  22 C22           -4.1418     7.4900     0.6111 C.ar    
  23 C23           -5.0308     6.4328     0.4862 C.ar    
  24 C24           -4.5597     5.1436     0.3504 C.ar    
  25 O25           -4.6114     8.7593     0.7385 O.3     
  26 C26           -6.0302     8.9295     0.7353 C.3     
  27 O27           -1.8997     8.2934     0.7302 O.3     
  28 C28           -0.5058     7.9788     0.7182 C.3     
  29 H29            2.5353     0.3353     0.1644 H       
  30 H30            4.4270     4.1605    -0.0936 H       
  31 H31            2.2277     5.2469    -0.2555 H       
  32 H32            0.1748     3.8949    -0.2194 H       
  33 H33            5.0240    -0.3363    -0.7303 H       
  34 H34            5.8618    -0.1474     0.8288 H       
  35 H35            4.0865    -0.2681     0.7812 H       
  36 H36            6.3577     2.6690     1.1250 H       
  37 H37            6.9017     1.8044    -0.3326 H       
  38 H38            5.9135     3.2766    -0.4880 H       
  39 H39           -2.6167     0.6279    -1.0046 H       
  40 H40           -2.6484     0.4303     0.7772 H       
  41 H41           -5.0924     2.9633     1.3989 H       
  42 H42           -5.0213     1.1971     1.1898 H       
  43 H43           -3.8036     2.0246     2.1902 H       
  44 H44           -3.7380     2.4763    -2.0683 H       
  45 H45           -4.9829     1.4613    -1.3012 H       
  46 H46           -5.0533     3.2323    -1.1373 H       
  47 H47           -1.2246     5.7807     0.4740 H       
  48 H48           -6.0945     6.6201     0.4905 H       
  49 H49           -5.2541     4.3227     0.2485 H       
  50 H50           -6.4384     8.5592    -0.2051 H       
  51 H51           -6.4649     8.3717     1.5648 H       
  52 H52           -6.2695     9.9873     0.8438 H       
  53 H53           -0.2779     7.3066     1.5455 H       
  54 H54           -0.2508     7.4943    -0.2243 H       
  55 H55            0.0745     8.8953     0.8243 H       
@<TRIPOS>BOND
   1    1    2 2
   2    1    3 1
   3    1   12 am
   4    3    4 ar
   5    3    8 ar
   6    4    5 ar
   7    4   29 1
   8    5    6 ar
   9    5    9 1
  10    6    7 ar
  11    6   30 1
  12    7    8 ar
  13    7   31 1
  14    8   32 1
  15    9   10 1
  16    9   11 1
  17   10   33 1
  18   10   34 1
  19   10   35 1
  20   11   36 1
  21   11   37 1
  22   11   38 1
  23   12   13 1
  24   12   16 1
  25   13   14 2
  26   14   15 1
  27   14   19 1
  28   15   16 1
  29   15   17 1
  30   15   18 1
  31   16   39 1
  32   16   40 1
  33   17   41 1
  34   17   42 1
  35   17   43 1
  36   18   44 1
  37   18   45 1
  38   18   46 1
  39   19   20 ar
  40   19   24 ar
  41   20   21 ar
  42   20   47 1
  43   21   22 ar
  44   21   27 1
  45   22   23 ar
  46   22   25 1
  47   23   24 ar
  48   23   48 1
  49   24   49 1
  50   25   26 1
  51   26   50 1
  52   26   51 1
  53   26   52 1
  54   27   28 1
  55   28   53 1
  56   28   54 1
  57   28   55 1

#	End of record

