#	Name: ASD05313140
#	Creating user name:	WinNT
#	Creation time:	15. 06. 2019 20:58

#	Modifying user name:	WinNT
#	Modification time:	15. 06. 2019 20:58

#	Program:	/corina/corina34_cracker 3.40 0067  02.08.2006

@<TRIPOS>MOLECULE
ASD05313140
  48   51    0    0    0
SMALL
NO_CHARGES


@<TRIPOS>ATOM
   1 C1            -0.0720     0.8160     1.0258 C.2     
   2 C2             0.1142    -0.6198     0.5978 C.3     
   3 N3             0.9298     1.7313     1.0524 N.pl3   
   4 N4             1.4575    -0.7185    -0.0040 N.am    
   5 C5             2.5712    -0.0361     0.6721 C.3     
   6 C6             2.3165     1.4759     0.6650 C.3     
   7 N7            -0.8904     2.6388     1.7080 N.2     
   8 N8            -1.1537     1.4080     1.4288 N.2     
   9 C9             0.3775     2.8791     1.4931 C.2     
  10 C10            1.0878     4.1917     1.7025 C.3     
  11 C11            0.4513     5.2632     0.8150 C.3     
  12 C12            1.1723     6.5958     1.0276 C.3     
  13 C13            1.0529     7.0119     2.4951 C.3     
  14 C14            1.6894     5.9404     3.3825 C.3     
  15 C15            0.9683     4.6078     3.1699 C.3     
  16 C16            1.6584    -1.4144    -1.1406 C.2     
  17 O17            2.7501    -1.4032    -1.6752 O.2     
  18 C18            0.5517    -2.1911    -1.7368 C.ar    
  19 C19            0.3206    -2.1401    -3.1140 C.ar    
  20 C20           -0.7158    -2.8688    -3.6638 C.ar    
  21 C21           -1.5235    -3.6467    -2.8543 C.ar    
  22 C22           -1.2999    -3.7009    -1.4898 C.ar    
  23 C23           -0.2643    -2.9836    -0.9278 C.ar    
  24 C24           -0.9674    -2.8157    -5.1487 C.3     
  25 F25           -2.0606    -3.6291    -5.4658 F       
  26 F26           -1.2413    -1.4974    -5.5285 F       
  27 F27            0.1661    -3.2714    -5.8304 F       
  28 Cl28           1.3331    -1.1630    -4.1308 Cl      
  29 H29            0.0452    -1.2781     1.4639 H       
  30 H30           -0.6437    -0.8901    -0.1375 H       
  31 H31            2.6431    -0.3883     1.7011 H       
  32 H32            3.5021    -0.2508     0.1473 H       
  33 H33            2.4937     1.8704    -0.3355 H       
  34 H34            2.9878     1.9617     1.3732 H       
  35 H35            2.1401     4.0811     1.4407 H       
  36 H36            0.5364     4.9667    -0.2304 H       
  37 H37           -0.6011     5.3737     1.0768 H       
  38 H38            2.2247     6.4853     0.7658 H       
  39 H39            0.7189     7.3592     0.3954 H       
  40 H40            1.5666     7.9613     2.6465 H       
  41 H41            0.0006     7.1224     2.7569 H       
  42 H42            2.7417     5.8299     3.1207 H       
  43 H43            1.6043     6.2368     4.4279 H       
  44 H44           -0.0840     4.7183     3.4317 H       
  45 H45            1.4217     3.8444     3.8022 H       
  46 H46           -2.3329    -4.2144    -3.2892 H       
  47 H47           -1.9350    -4.3100    -0.8637 H       
  48 H48           -0.0882    -3.0313     0.1367 H       
@<TRIPOS>BOND
   1    1    2 1
   2    1    3 1
   3    1    8 2
   4    2    4 1
   5    2   29 1
   6    2   30 1
   7    3    6 1
   8    3    9 1
   9    4    5 1
  10    4   16 am
  11    5    6 1
  12    5   31 1
  13    5   32 1
  14    6   33 1
  15    6   34 1
  16    7    8 1
  17    7    9 2
  18    9   10 1
  19   10   11 1
  20   10   15 1
  21   10   35 1
  22   11   12 1
  23   11   36 1
  24   11   37 1
  25   12   13 1
  26   12   38 1
  27   12   39 1
  28   13   14 1
  29   13   40 1
  30   13   41 1
  31   14   15 1
  32   14   42 1
  33   14   43 1
  34   15   44 1
  35   15   45 1
  36   16   17 2
  37   16   18 1
  38   18   19 ar
  39   18   23 ar
  40   19   20 ar
  41   19   28 1
  42   20   21 ar
  43   20   24 1
  44   21   22 ar
  45   21   46 1
  46   22   23 ar
  47   22   47 1
  48   23   48 1
  49   24   25 1
  50   24   26 1
  51   24   27 1

#	End of record

