#	Name: ASD01912801
#	Creating user name:	WinNT
#	Creation time:	15. 06. 2019 20:00

#	Modifying user name:	WinNT
#	Modification time:	15. 06. 2019 20:00

#	Program:	/corina/corina34_cracker 3.40 0067  02.08.2006

@<TRIPOS>MOLECULE
ASD01912801
  41   44    0    0    0
SMALL
NO_CHARGES


@<TRIPOS>ATOM
   1 C1            -0.0189     1.3592     0.1429 C.2     
   2 N2             0.0023    -0.0034    -0.0078 N.pl3   
   3 C3            -1.1996    -0.6835    -0.1371 C.2     
   4 C4            -2.3604    -0.0416    -0.1176 C.2     
   5 N5            -2.4358     1.3308     0.0317 N.am    
   6 C6            -1.3047     2.0582     0.1689 C.2     
   7 C7             1.2971     1.7695     0.2469 C.2     
   8 C8             2.0522     0.6017     0.1505 C.2     
   9 N9             1.2242    -0.4051     0.0018 N.2     
  10 O10           -1.3539     3.2678     0.3013 O.2     
  11 C11           -3.6793     1.9642     0.0460 C.ar    
  12 C12            3.5554     0.5116     0.2072 C.3     
  13 O13            4.1050     1.8197     0.3770 O.3     
  14 C14            5.4565     1.9155     0.4477 C.ar    
  15 C15            6.0500     3.1603     0.6124 C.ar    
  16 C16            7.4298     3.2444     0.6830 C.ar    
  17 C17            8.1702     2.0746     0.5858 C.ar    
  18 C18            7.5132     0.8709     0.4227 C.ar    
  19 N19            6.1960     0.8220     0.3643 N.ar    
  20 N20           -4.2965     2.1711     1.1995 N.ar    
  21 C21           -4.2555     2.3770    -1.1503 C.ar    
  22 C22           -5.4917     3.0055    -1.1242 C.ar    
  23 C23           -6.1099     3.1997     0.1007 C.ar    
  24 C24           -5.4756     2.7675     1.2572 C.ar    
  25 F25           -3.6188     2.1688    -2.3236 F       
  26 O26           -6.0747     2.9541     2.4606 O.3     
  27 C27           -5.3722     2.4878     3.6143 C.3     
  28 H28           -1.1903    -1.7568    -0.2565 H       
  29 H29           -3.2739    -0.6081    -0.2219 H       
  30 H30            1.6618     2.7779     0.3749 H       
  31 H31            3.8502    -0.1182     1.0466 H       
  32 H32            3.9286     0.0783    -0.7208 H       
  33 H33            5.4431     4.0507     0.6842 H       
  34 H34            7.9192     4.1987     0.8105 H       
  35 H35            9.2485     2.1053     0.6367 H       
  36 H36            8.0846    -0.0423     0.3462 H       
  37 H37           -5.9619     3.3366    -2.0384 H       
  38 H38           -7.0726     3.6861     0.1553 H       
  39 H39           -5.2102     1.4131     3.5313 H       
  40 H40           -4.4104     2.9959     3.6841 H       
  41 H41           -5.9602     2.6987     4.5076 H       
@<TRIPOS>BOND
   1    1    2 1
   2    1    7 2
   3    1    6 1
   4    2    3 1
   5    2    9 1
   6    3    4 2
   7    3   28 1
   8    4    5 1
   9    4   29 1
  10    5    6 am
  11    5   11 1
  12    6   10 2
  13    7    8 1
  14    7   30 1
  15    8    9 2
  16    8   12 1
  17   11   21 ar
  18   11   20 ar
  19   12   13 1
  20   12   31 1
  21   12   32 1
  22   13   14 1
  23   14   15 ar
  24   14   19 ar
  25   15   16 ar
  26   15   33 1
  27   16   17 ar
  28   16   34 1
  29   17   18 ar
  30   17   35 1
  31   18   19 ar
  32   18   36 1
  33   20   24 ar
  34   21   22 ar
  35   21   25 1
  36   22   23 ar
  37   22   37 1
  38   23   24 ar
  39   23   38 1
  40   24   26 1
  41   26   27 1
  42   27   39 1
  43   27   40 1
  44   27   41 1

#	End of record

