#	Name: ASD01881504
#	Creating user name:	WinNT
#	Creation time:	15. 06. 2019 19:42

#	Modifying user name:	WinNT
#	Modification time:	15. 06. 2019 19:42

#	Program:	/corina/corina34_cracker 3.40 0067  02.08.2006

@<TRIPOS>MOLECULE
ASD01881504
  46   49    0    0    0
SMALL
NO_CHARGES


@<TRIPOS>ATOM
   1 C1            -0.0156     1.2969     0.0092 C.2     
   2 N2             0.0021    -0.0041     0.0020 N.2     
   3 C3             1.2869    -0.4431    -0.0126 C.ar    
   4 C4             2.1089     0.6968    -0.0143 C.ar    
   5 N5             1.2554     1.7819    -0.0004 N.pl3   
   6 C6             1.8715    -1.7119    -0.0257 C.ar    
   7 C7             3.2323    -1.8344    -0.0400 C.ar    
   8 C8             4.0442    -0.7094    -0.0417 C.ar    
   9 C9             3.4892     0.5529    -0.0287 C.ar    
  10 C10            1.6460     3.1939     0.0028 C.3     
  11 C11           -1.2624     2.1432     0.0199 C.3     
  12 N12           -1.6604     2.4112     1.4084 N.3     
  13 C13           -2.7248     3.4213     1.4651 C.3     
  14 C14           -3.0115     3.7806     2.9248 C.3     
  15 C15           -3.4381     2.5196     3.6814 C.3     
  16 C16           -2.3328     1.4663     3.5660 C.3     
  17 C17           -2.0657     1.1740     2.0878 C.3     
  18 C18           -3.6640     2.8555     5.1330 C.ar    
  19 C19           -4.9088     2.6525     5.7051 C.ar    
  20 C20           -5.1154     2.9609     7.0386 C.ar    
  21 C21           -4.0782     3.4715     7.7983 C.ar    
  22 C22           -2.8353     3.6737     7.2252 C.ar    
  23 C23           -2.6276     3.3607     5.8947 C.ar    
  24 F24           -5.9210     2.1542     4.9620 F       
  25 Cl25          -4.3363     3.8592     9.4707 Cl      
  26 H26            1.2490    -2.5944    -0.0241 H       
  27 H27            3.6805    -2.8170    -0.0497 H       
  28 H28            5.1181    -0.8230    -0.0531 H       
  29 H29            4.1257     1.4254    -0.0304 H       
  30 H30            1.7524     3.5391     1.0311 H       
  31 H31            2.5958     3.3093    -0.5194 H       
  32 H32            0.8803     3.7838    -0.5011 H       
  33 H33           -1.0659     3.0862    -0.4902 H       
  34 H34           -2.0655     1.6135    -0.4925 H       
  35 H35           -2.4070     4.3143     0.9269 H       
  36 H36           -3.6288     3.0225     1.0049 H       
  37 H37           -2.1116     4.1923     3.3818 H       
  38 H38           -3.8123     4.5189     2.9673 H       
  39 H39           -4.3595     2.1296     3.2491 H       
  40 H40           -1.4222     1.8415     4.0331 H       
  41 H41           -2.6486     0.5510     4.0666 H       
  42 H42           -2.9728     0.7858     1.6246 H       
  43 H43           -1.2692     0.4348     2.0018 H       
  44 H44           -6.0858     2.8033     7.4856 H       
  45 H45           -2.0258     4.0723     7.8186 H       
  46 H46           -1.6559     3.5150     5.4493 H       
@<TRIPOS>BOND
   1    1    2 2
   2    1    5 1
   3    1   11 1
   4    2    3 1
   5    3    4 ar
   6    3    6 ar
   7    4    5 1
   8    4    9 ar
   9    5   10 1
  10    6    7 ar
  11    6   26 1
  12    7    8 ar
  13    7   27 1
  14    8    9 ar
  15    8   28 1
  16    9   29 1
  17   10   30 1
  18   10   31 1
  19   10   32 1
  20   11   12 1
  21   11   33 1
  22   11   34 1
  23   12   13 1
  24   12   17 1
  25   13   14 1
  26   13   35 1
  27   13   36 1
  28   14   15 1
  29   14   37 1
  30   14   38 1
  31   15   16 1
  32   15   18 1
  33   15   39 1
  34   16   17 1
  35   16   40 1
  36   16   41 1
  37   17   42 1
  38   17   43 1
  39   18   19 ar
  40   18   23 ar
  41   19   20 ar
  42   19   24 1
  43   20   21 ar
  44   20   44 1
  45   21   22 ar
  46   21   25 1
  47   22   23 ar
  48   22   45 1
  49   23   46 1

#	End of record

