#	Name: ASD01914104
#	Creating user name:	WinNT
#	Creation time:	15. 06. 2019 20:02

#	Modifying user name:	WinNT
#	Modification time:	15. 06. 2019 20:02

#	Program:	/corina/corina34_cracker 3.40 0067  02.08.2006

@<TRIPOS>MOLECULE
ASD01914104
  50   52    0    0    0
SMALL
NO_CHARGES


@<TRIPOS>ATOM
   1 C1            -0.0167     1.3796     0.0096 C.ar    
   2 C2             0.0021    -0.0041     0.0020 C.ar    
   3 C3             2.3852     0.0983    -0.0201 C.ar    
   4 C4             2.2848     1.4818    -0.0118 C.ar    
   5 O5             3.6034    -0.5041    -0.0345 O.3     
   6 C6             1.2214    -0.6638    -0.0131 C.ar    
   7 N7             1.1056     2.0713     0.0026 N.ar    
   8 Cl8           -1.4831    -0.9029     0.0119 Cl      
   9 C9             4.7493     0.3496    -0.0404 C.3     
  10 C10            6.0009    -0.4897    -0.0564 C.ar    
  11 N11            7.1795     0.1030    -0.0640 N.ar    
  12 C12            8.3032    -0.5835    -0.0780 C.ar    
  13 C13            8.2823    -1.9786    -0.0858 C.ar    
  14 C14            7.0463    -2.6365    -0.0780 C.ar    
  15 C15            5.8951    -1.8692    -0.0572 C.ar    
  16 C16            9.5439    -2.7491    -0.1025 C.2     
  17 N17           10.7273    -2.1043    -0.1103 N.am    
  18 C18           11.9775    -2.8679    -0.1268 C.3     
  19 O19            9.5138    -3.9643    -0.1091 O.2     
  20 C20           13.0882    -2.0145    -0.7424 C.3     
  21 C21           12.3611    -3.2492     1.3044 C.3     
  22 C22           14.3938    -2.8120    -0.7596 C.3     
  23 C23           15.5046    -1.9586    -1.3752 C.3     
  24 C24           15.1209    -1.5773    -2.8064 C.3     
  25 C25           13.8153    -0.7798    -2.7892 C.3     
  26 C26           12.7046    -1.6332    -2.1736 C.3     
  27 H27           -0.9632     1.8997     0.0169 H       
  28 H28            3.1823     2.0826    -0.0168 H       
  29 H29            1.2666    -1.7428    -0.0190 H       
  30 H30            4.7256     0.9835    -0.9268 H       
  31 H31            4.7419     0.9739     0.8530 H       
  32 H32            9.2490    -0.0623    -0.0839 H       
  33 H33            6.9929    -3.7152    -0.0837 H       
  34 H34            4.9242    -2.3420    -0.0507 H       
  35 H35           10.7513    -1.1346    -0.1050 H       
  36 H36           11.8430    -3.7723    -0.7202 H       
  37 H37           13.2227    -1.1101    -0.1490 H       
  38 H38           11.5698    -3.8572     1.7429 H       
  39 H39           13.2913    -3.8174     1.2921 H       
  40 H40           12.4956    -2.3448     1.8977 H       
  41 H41           14.6672    -3.0837     0.2600 H       
  42 H42           14.2594    -3.7164    -1.3530 H       
  43 H43           15.6391    -1.0542    -0.7819 H       
  44 H44           16.4347    -2.5268    -1.3875 H       
  45 H45           15.9122    -0.9694    -3.2450 H       
  46 H46           14.9865    -2.4817    -3.3998 H       
  47 H47           13.9498     0.1246    -2.1958 H       
  48 H48           13.5420    -0.5082    -3.8088 H       
  49 H49           12.5701    -2.5376    -2.7669 H       
  50 H50           11.7744    -1.0651    -2.1613 H       
@<TRIPOS>BOND
   1    1    2 ar
   2    1    7 ar
   3    1   27 1
   4    2    6 ar
   5    2    8 1
   6    3    4 ar
   7    3    5 1
   8    3    6 ar
   9    4    7 ar
  10    4   28 1
  11    5    9 1
  12    6   29 1
  13    9   10 1
  14    9   30 1
  15    9   31 1
  16   10   11 ar
  17   10   15 ar
  18   11   12 ar
  19   12   13 ar
  20   12   32 1
  21   13   14 ar
  22   13   16 1
  23   14   15 ar
  24   14   33 1
  25   15   34 1
  26   16   17 am
  27   16   19 2
  28   17   18 1
  29   17   35 1
  30   18   20 1
  31   18   21 1
  32   18   36 1
  33   20   22 1
  34   20   26 1
  35   20   37 1
  36   21   38 1
  37   21   39 1
  38   21   40 1
  39   22   23 1
  40   22   41 1
  41   22   42 1
  42   23   24 1
  43   23   43 1
  44   23   44 1
  45   24   25 1
  46   24   45 1
  47   24   46 1
  48   25   26 1
  49   25   47 1
  50   25   48 1
  51   26   49 1
  52   26   50 1

#	End of record

