#	Name: ASD00069177
#	Creating user name:	WinNT
#	Creation time:	15. 06. 2019 18:29

#	Modifying user name:	WinNT
#	Modification time:	15. 06. 2019 18:29

#	Program:	/corina/corina34_cracker 3.40 0067  02.08.2006

@<TRIPOS>MOLECULE
ASD00069177
  66   70    0    0    0
SMALL
NO_CHARGES


@<TRIPOS>ATOM
   1 C1            -0.0162     1.3058     0.0437 C.2     
   2 N2            -0.0002    -0.0077     0.0318 N.2     
   3 C3             1.2711    -0.4298     0.0344 C.2     
   4 C4             2.0846     0.6819     0.0487 C.2     
   5 N5             1.2729     1.7619     0.0545 N.pl3   
   6 C6            -1.2254     2.1497     0.0398 C.2     
   7 O7            -1.1214     3.3614     0.0515 O.2     
   8 N8            -2.4459     1.5783     0.0231 N.am    
   9 C9             3.4317    -3.3888     0.0205 C.ar    
  10 N10            3.0232    -2.1372     0.0288 N.ar    
  11 C11            1.7224    -1.8418     0.0245 C.ar    
  12 C12            0.7942    -2.8811     0.0110 C.ar    
  13 C13            1.2710    -4.1901     0.0025 C.ar    
  14 N14            2.5855    -4.3988     0.0076 N.ar    
  15 N15            0.3893    -5.2595    -0.0105 N.pl3   
  16 C16           -1.0556    -5.0176    -0.0155 C.3     
  17 C17           -1.7856    -6.3359    -0.0299 C.ar    
  18 C18           -2.1259    -6.9499     1.1612 C.ar    
  19 C19           -2.7962    -8.1603     1.1489 C.ar    
  20 C20           -3.1259    -8.7564    -0.0592 C.ar    
  21 C21           -2.7839    -8.1394    -1.2496 C.ar    
  22 C22           -2.1192    -6.9272    -1.2338 C.ar    
  23 F23           -3.7800    -9.9385    -0.0737 F       
  24 F24           -3.1287    -8.7610     2.3124 F       
  25 C25           -3.5930     2.3733     0.1388 C.ar    
  26 C26           -4.7618     2.0158    -0.5321 C.ar    
  27 C27           -5.8955     2.8086    -0.4131 C.ar    
  28 C28           -5.8620     3.9496     0.3699 C.ar    
  29 C29           -4.7021     4.3027     1.0345 C.ar    
  30 C30           -3.5710     3.5156     0.9257 C.ar    
  31 F31           -7.0304     2.4668    -1.0615 F       
  32 N32           -4.7921     0.8608    -1.3240 N.3     
  33 C33           -5.8047    -0.0847    -0.8371 C.3     
  34 C34           -5.7106    -1.3891    -1.6318 C.3     
  35 C35           -5.9341    -1.0932    -3.1174 C.3     
  36 C36           -4.8970    -0.0696    -3.5876 C.3     
  37 C37           -5.0146     1.1966    -2.7361 C.3     
  38 C38           -5.7811    -2.3839    -3.9246 C.3     
  39 N39           -6.1126    -2.1236    -5.3318 N.3     
  40 H40            3.1645     0.6888     0.0542 H       
  41 H41            1.5531     2.6905     0.0641 H       
  42 H42           -2.5298     0.6163    -0.0690 H       
  43 H43            4.4921    -3.5938     0.0197 H       
  44 H44           -0.2664    -2.6773     0.0075 H       
  45 H45            0.7289    -6.1681    -0.0163 H       
  46 H46           -1.3334    -4.4582     0.8777 H       
  47 H47           -1.3248    -4.4436    -0.9022 H       
  48 H48           -1.8683    -6.4848     2.1013 H       
  49 H49           -3.0398    -8.6028    -2.1910 H       
  50 H50           -1.8564    -6.4440    -2.1632 H       
  51 H51           -6.7442     4.5659     0.4616 H       
  52 H52           -4.6810     5.1941     1.6439 H       
  53 H53           -2.6684     3.7922     1.4503 H       
  54 H54           -5.6318    -0.2898     0.2194 H       
  55 H55           -6.7969     0.3479    -0.9652 H       
  56 H56           -4.7232    -1.8294    -1.4931 H       
  57 H57           -6.4725    -2.0850    -1.2807 H       
  58 H58           -6.9361    -0.6890    -3.2616 H       
  59 H59           -3.8968    -0.4891    -3.4796 H       
  60 H60           -5.0777     0.1773    -4.6338 H       
  61 H61           -6.0106     1.6232    -2.8554 H       
  62 H62           -4.2679     1.9221    -3.0590 H       
  63 H63           -4.7524    -2.7373    -3.8530 H       
  64 H64           -6.4546    -3.1431    -3.5270 H       
  65 H65           -6.0191    -2.9615    -5.8862 H       
  66 H66           -7.0393    -1.7340    -5.4189 H       
@<TRIPOS>BOND
   1    1    2 2
   2    1    5 1
   3    1    6 1
   4    2    3 1
   5    3    4 2
   6    3   11 1
   7    4    5 1
   8    4   40 1
   9    5   41 1
  10    6    7 2
  11    6    8 am
  12    8   25 1
  13    8   42 1
  14    9   10 ar
  15    9   14 ar
  16    9   43 1
  17   10   11 ar
  18   11   12 ar
  19   12   13 ar
  20   12   44 1
  21   13   14 ar
  22   13   15 1
  23   15   16 1
  24   15   45 1
  25   16   17 1
  26   16   46 1
  27   16   47 1
  28   17   18 ar
  29   17   22 ar
  30   18   19 ar
  31   18   48 1
  32   19   20 ar
  33   19   24 1
  34   20   21 ar
  35   20   23 1
  36   21   22 ar
  37   21   49 1
  38   22   50 1
  39   25   26 ar
  40   25   30 ar
  41   26   27 ar
  42   26   32 1
  43   27   28 ar
  44   27   31 1
  45   28   29 ar
  46   28   51 1
  47   29   30 ar
  48   29   52 1
  49   30   53 1
  50   32   33 1
  51   32   37 1
  52   33   34 1
  53   33   54 1
  54   33   55 1
  55   34   35 1
  56   34   56 1
  57   34   57 1
  58   35   36 1
  59   35   38 1
  60   35   58 1
  61   36   37 1
  62   36   59 1
  63   36   60 1
  64   37   61 1
  65   37   62 1
  66   38   39 1
  67   38   63 1
  68   38   64 1
  69   39   65 1
  70   39   66 1

#	End of record

