#	Name: ASD01120324
#	Creating user name:	WinNT
#	Creation time:	15. 06. 2019 18:59

#	Modifying user name:	WinNT
#	Modification time:	15. 06. 2019 18:59

#	Program:	/corina/corina34_cracker 3.40 0067  02.08.2006

@<TRIPOS>MOLECULE
ASD01120324
  35   37    0    0    0
SMALL
NO_CHARGES


@<TRIPOS>ATOM
   1 C1            -0.0173     1.4248     0.0099 C.3     
   2 O2             0.0021    -0.0041     0.0020 O.3     
   3 C3             0.6258    -0.6184     1.0415 C.ar    
   4 C4             1.2071     0.1403     2.0482 C.ar    
   5 C5             1.8429    -0.4799     3.1079 C.ar    
   6 C6             1.9030    -1.8571     3.1714 C.ar    
   7 C7             1.3211    -2.6273     2.1643 C.ar    
   8 C8             0.6763    -2.0014     1.0991 C.ar    
   9 C9             1.3843    -4.1060     2.2293 C.ar    
  10 C10            0.2339    -4.8628     2.0645 C.ar    
  11 C11            0.2916    -6.2466     2.1252 C.ar    
  12 C12            1.4872    -6.8938     2.3493 C.ar    
  13 C13            2.6593    -6.1617     2.5191 C.ar    
  14 C14            2.6168    -4.7562     2.4538 C.ar    
  15 C15            3.9345    -4.2913     2.6591 C.2     
  16 C16            4.7339    -5.3776     2.8402 C.2     
  17 N17            3.9658    -6.5228     2.7514 N.pl3   
  18 C18            6.1813    -5.3392     3.0845 C.2     
  19 O19            6.7606    -4.2716     3.1384 O.2     
  20 O20            6.8681    -6.4880     3.2491 O.3     
  21 N21            1.5256    -8.3724     2.4102 N.pl3   
  22 O22            0.5014    -9.0147     2.2623 O.2     
  23 O23            2.5813    -8.9465     2.6082 O.2     
  24 H24            1.0053     1.8021     0.0021 H       
  25 H25           -0.5445     1.7859    -0.8732 H       
  26 H26           -0.5275     1.7763     0.9067 H       
  27 H27            1.1630     1.2184     2.0033 H       
  28 H28            2.2941     0.1152     3.8881 H       
  29 H29            2.4007    -2.3384     4.0003 H       
  30 H30            0.2241    -2.5928     0.3167 H       
  31 H31           -0.7118    -4.3717     1.8884 H       
  32 H32           -0.6116    -6.8244     1.9955 H       
  33 H33            4.2511    -3.2588     2.6698 H       
  34 H34            4.2930    -7.4313     2.8439 H       
  35 H35            7.8190    -6.4122     3.4075 H       
@<TRIPOS>BOND
   1    1    2 1
   2    1   24 1
   3    1   25 1
   4    1   26 1
   5    2    3 1
   6    3    4 ar
   7    3    8 ar
   8    4    5 ar
   9    4   27 1
  10    5    6 ar
  11    5   28 1
  12    6    7 ar
  13    6   29 1
  14    7    8 ar
  15    7    9 1
  16    8   30 1
  17    9   10 ar
  18    9   14 ar
  19   10   11 ar
  20   10   31 1
  21   11   12 ar
  22   11   32 1
  23   12   13 ar
  24   12   21 1
  25   13   14 ar
  26   13   17 1
  27   14   15 1
  28   15   16 2
  29   15   33 1
  30   16   17 1
  31   16   18 1
  32   17   34 1
  33   18   19 2
  34   18   20 1
  35   20   35 1
  36   21   22 2
  37   21   23 2

#	End of record

