#	Name: ASD07930097
#	Creating user name:	WinNT
#	Creation time:	15. 06. 2019 21:11

#	Modifying user name:	WinNT
#	Modification time:	15. 06. 2019 21:11

#	Program:	/corina/corina34_cracker 3.40 0067  02.08.2006

@<TRIPOS>MOLECULE
ASD07930097
  23   23    0    0    0
SMALL
NO_CHARGES


@<TRIPOS>ATOM
   1 C1            -0.1625     1.5018    -0.5437 C.2     
   2 C2            -0.1378    -0.0050    -0.5388 C.3     
   3 O3             0.7440     2.1215    -1.0588 O.2     
   4 N4            -1.1946     2.1607     0.0195 N.am    
   5 F5             1.0206    -0.4545    -1.1816 F       
   6 F6            -0.1476    -0.4672     0.7816 F       
   7 F7            -1.2635    -0.4920    -1.2117 F       
   8 C8            -1.1627     3.5563     0.1198 C.ar    
   9 C9            -2.3389     4.2876     0.0203 C.ar    
  10 C10           -2.3030     5.6700     0.1202 C.ar    
  11 C11           -1.0925     6.3191     0.3192 C.ar    
  12 C12            0.0769     5.5896     0.4174 C.ar    
  13 C13            0.0446     4.2113     0.3246 C.ar    
  14 O14           -3.4523     6.3890     0.0229 O.3     
  15 C15           -3.3405     7.8092     0.1351 C.3     
  16 Br16          -3.9864     3.3998    -0.2514 Br      
  17 H17           -1.9595     1.6677     0.3552 H       
  18 H18           -1.0645     7.3959     0.3970 H       
  19 H19            1.0175     6.0974     0.5715 H       
  20 H20            0.9596     3.6434     0.4066 H       
  21 H21           -2.6914     8.1861    -0.6553 H       
  22 H22           -4.3283     8.2600     0.0399 H       
  23 H23           -2.9165     8.0647     1.1062 H       
@<TRIPOS>BOND
   1    1    2 1
   2    1    3 2
   3    1    4 am
   4    2    5 1
   5    2    6 1
   6    2    7 1
   7    4    8 1
   8    4   17 1
   9    8    9 ar
  10    8   13 ar
  11    9   10 ar
  12    9   16 1
  13   10   11 ar
  14   10   14 1
  15   11   12 ar
  16   11   18 1
  17   12   13 ar
  18   12   19 1
  19   13   20 1
  20   14   15 1
  21   15   21 1
  22   15   22 1
  23   15   23 1

#	End of record

