#	Name: ASD03930136
#	Creating user name:	WinNT
#	Creation time:	15. 06. 2019 20:47

#	Modifying user name:	WinNT
#	Modification time:	15. 06. 2019 20:47

#	Program:	/corina/corina34_cracker 3.40 0067  02.08.2006

@<TRIPOS>MOLECULE
ASD03930136
  37   38    0    0    0
SMALL
NO_CHARGES


@<TRIPOS>ATOM
   1 C1            -3.3814     1.1583     1.3935 C.3     
   2 C2            -2.9375    -0.3052     1.4411 C.3     
   3 C3            -4.1609    -1.2138     1.3049 C.3     
   4 S4            -1.7864    -0.6325     0.0779 S.o2    
   5 O5            -2.4547    -0.5385    -1.1726 O.2     
   6 O6            -0.5496     0.0312     0.2994 O.2     
   7 N7            -1.4189    -2.2406     0.2246 N.am    
   8 C8             0.8203    -2.8215     1.1104 C.3     
   9 C9            -0.6920    -2.7214     1.4022 C.3     
  10 C10           -1.0660    -4.1852     1.7179 C.3     
  11 C11            0.2095    -4.8180     2.2317 C.ar    
  12 C12            0.4061    -5.9869     2.9480 C.ar    
  13 C13            1.6810    -6.3715     3.3141 C.ar    
  14 C14            2.7651    -5.5878     2.9650 C.ar    
  15 C15            2.5710    -4.4218     2.2507 C.ar    
  16 C16            1.2933    -4.0344     1.8826 C.ar    
  17 C17            1.8902    -7.6440     4.0940 C.3     
  18 O18            2.0804    -8.7323     3.1876 O.3     
  19 H19           -4.0731     1.3550     2.2126 H       
  20 H20           -2.5098     1.8056     1.4905 H       
  21 H21           -3.8774     1.3568     0.4434 H       
  22 H22           -2.4415    -0.5037     2.3912 H       
  23 H23           -4.7048    -0.9571     0.3959 H       
  24 H24           -3.8374    -2.2534     1.2534 H       
  25 H25           -4.8121    -1.0783     2.1685 H       
  26 H26           -1.6849    -2.8641    -0.4692 H       
  27 H27            0.9911    -2.9625     0.0431 H       
  28 H28            1.3333    -1.9261     1.4613 H       
  29 H29           -0.8788    -2.0794     2.2630 H       
  30 H30           -1.8410    -4.2208     2.4836 H       
  31 H31           -1.4027    -4.6929     0.8141 H       
  32 H32           -0.4403    -6.5994     3.2214 H       
  33 H33            3.7627    -5.8869     3.2508 H       
  34 H34            3.4184    -3.8101     1.9783 H       
  35 H35            2.7708    -7.5409     4.7280 H       
  36 H36            1.0157    -7.8372     4.7153 H       
  37 H37            2.2213    -9.5851     3.6211 H       
@<TRIPOS>BOND
   1    1    2 1
   2    1   19 1
   3    1   20 1
   4    1   21 1
   5    2    3 1
   6    2    4 1
   7    2   22 1
   8    3   23 1
   9    3   24 1
  10    3   25 1
  11    4    5 2
  12    4    6 2
  13    4    7 am
  14    7    9 1
  15    7   26 1
  16    8    9 1
  17    8   16 1
  18    8   27 1
  19    8   28 1
  20    9   10 1
  21    9   29 1
  22   10   11 1
  23   10   30 1
  24   10   31 1
  25   11   12 ar
  26   11   16 ar
  27   12   13 ar
  28   12   32 1
  29   13   14 ar
  30   13   17 1
  31   14   15 ar
  32   14   33 1
  33   15   16 ar
  34   15   34 1
  35   17   18 1
  36   17   35 1
  37   17   36 1
  38   18   37 1

#	End of record

