#	Name: ASD00431073
#	Creating user name:	WinNT
#	Creation time:	15. 06. 2019 18:35

#	Modifying user name:	WinNT
#	Modification time:	15. 06. 2019 18:35

#	Program:	/corina/corina34_cracker 3.40 0067  02.08.2006

@<TRIPOS>MOLECULE
ASD00431073
  51   53    0    0    0
SMALL
NO_CHARGES


@<TRIPOS>ATOM
   1 N1             0.5507     1.5195    -0.1053 N.am    
   2 C2             0.5952     0.1732    -0.1493 C.2     
   3 O3             1.6648    -0.4020    -0.0901 O.2     
   4 N4            -0.5459    -0.5356    -0.2588 N.am    
   5 C5             1.7911     2.2899     0.0138 C.3     
   6 C6             2.3954     2.5015    -1.3758 C.3     
   7 C7             1.4934     3.6274     0.6411 C.ar    
   8 C8             2.3672     4.1614     1.5716 C.ar    
   9 C9             2.1009     5.3855     2.1493 C.ar    
  10 C10            0.9469     6.0856     1.7933 C.ar    
  11 C11            0.0696     5.5411     0.8539 C.ar    
  12 C12            0.3505     4.3185     0.2798 C.ar    
  13 S13            1.6491     8.2257     3.6042 S.3     
  14 C14            0.5361     9.5224     3.6478 C.2     
  15 N15           -0.4484     9.2983     2.8341 N.2     
  16 C16           -0.4194     8.1717     2.1539 C.2     
  17 C17            0.6550     7.3973     2.4085 C.2     
  18 O18            0.6641    10.6265     4.4221 O.3     
  19 C19           -0.2519    11.6202     4.2734 C.ar    
  20 C20           -1.5714    11.4089     4.6459 C.ar    
  21 C21           -2.5018    12.4184     4.4947 C.ar    
  22 C22           -2.1170    13.6434     3.9699 C.ar    
  23 C23           -0.7977    13.8548     3.5974 C.ar    
  24 C24            0.1342    12.8475     3.7543 C.ar    
  25 O25           -3.0332    14.6368     3.8203 O.3     
  26 C26           -2.5523    15.8972     3.3488 C.3     
  27 C27           -3.7052    16.6780     2.7146 C.3     
  28 C28           -1.9797    16.6957     4.5215 C.3     
  29 H29           -0.3023     1.9785    -0.1566 H       
  30 H30           -1.3992    -0.0767    -0.3061 H       
  31 H31           -0.5139    -1.5045    -0.2905 H       
  32 H32            2.4987     1.7449     0.6386 H       
  33 H33            3.3183     3.0747    -1.2871 H       
  34 H34            2.6107     1.5341    -1.8295 H       
  35 H35            1.6878     3.0465    -2.0006 H       
  36 H36            3.2595     3.6186     1.8464 H       
  37 H37            2.7836     5.8011     2.8757 H       
  38 H38           -0.8251     6.0774     0.5743 H       
  39 H39           -0.3253     3.8979    -0.4501 H       
  40 H40           -1.1906     7.8912     1.4518 H       
  41 H41           -1.8711    10.4549     5.0539 H       
  42 H42           -3.5290    12.2539     4.7848 H       
  43 H43           -0.4982    14.8085     3.1885 H       
  44 H44            1.1623    13.0136     3.4683 H       
  45 H45           -1.7722    15.7334     2.6054 H       
  46 H46           -4.4853    16.8419     3.4580 H       
  47 H47           -3.3384    17.6394     2.3550 H       
  48 H48           -4.1131    16.1092     1.8791 H       
  49 H49           -1.1584    16.1394     4.9733 H       
  50 H50           -1.6129    17.6571     4.1619 H       
  51 H51           -2.7599    16.8595     5.2649 H       
@<TRIPOS>BOND
   1    1    2 am
   2    1    5 1
   3    1   29 1
   4    2    3 2
   5    2    4 am
   6    4   30 1
   7    4   31 1
   8    5    6 1
   9    5    7 1
  10    5   32 1
  11    6   33 1
  12    6   34 1
  13    6   35 1
  14    7    8 ar
  15    7   12 ar
  16    8    9 ar
  17    8   36 1
  18    9   10 ar
  19    9   37 1
  20   10   11 ar
  21   10   17 1
  22   11   12 ar
  23   11   38 1
  24   12   39 1
  25   13   14 1
  26   13   17 1
  27   14   15 2
  28   14   18 1
  29   15   16 1
  30   16   17 2
  31   16   40 1
  32   18   19 1
  33   19   20 ar
  34   19   24 ar
  35   20   21 ar
  36   20   41 1
  37   21   22 ar
  38   21   42 1
  39   22   23 ar
  40   22   25 1
  41   23   24 ar
  42   23   43 1
  43   24   44 1
  44   25   26 1
  45   26   27 1
  46   26   28 1
  47   26   45 1
  48   27   46 1
  49   27   47 1
  50   27   48 1
  51   28   49 1
  52   28   50 1
  53   28   51 1

#	End of record

