#	Name: ASD01901415
#	Creating user name:	WinNT
#	Creation time:	15. 06. 2019 19:53

#	Modifying user name:	WinNT
#	Modification time:	15. 06. 2019 19:53

#	Program:	/corina/corina34_cracker 3.40 0067  02.08.2006

@<TRIPOS>MOLECULE
ASD01901415
  40   44    0    0    0
SMALL
NO_CHARGES


@<TRIPOS>ATOM
   1 C1            -0.0169     1.3920     0.0097 C.ar    
   2 C2            -1.2328     2.0656     0.0314 C.ar    
   3 C3            -2.4208     1.3483     0.0453 C.ar    
   4 C4            -2.3996    -0.0368     0.0376 C.ar    
   5 C5            -1.1971    -0.7136     0.0161 C.ar    
   6 C6             0.0021    -0.0041     0.0020 C.ar    
   7 C7             1.2960    -0.7304    -0.0147 C.2     
   8 N8             3.2254    -1.4601     1.1342 N.2     
   9 C9             2.0833    -0.8175     1.1541 C.2     
  10 C10            1.7398    -1.3294    -1.1603 C.2     
  11 N11            2.9333    -1.9892    -1.1409 N.pl3   
  12 C12            3.6711    -2.0468     0.0132 C.2     
  13 C13            3.6298    -2.6728    -2.1008 C.2     
  14 C14            4.7617    -3.1268    -1.5217 C.2     
  15 N15            4.7723    -2.7388    -0.2431 N.2     
  16 C16            5.8350    -3.9353    -2.2040 C.3     
  17 O17            5.4727    -4.1521    -3.5692 O.3     
  18 C18            6.3381    -4.8686    -4.3299 C.ar    
  19 C19            6.0440    -5.1077    -5.6659 C.ar    
  20 N20            7.4564    -5.3281    -3.7932 N.ar    
  21 C21            8.3249    -6.0288    -4.4968 C.ar    
  22 C22            8.0945    -6.3091    -5.8292 C.ar    
  23 C23            6.9352    -5.8400    -6.4310 C.ar    
  24 F24           -3.6022     2.0032     0.0668 F       
  25 O25           -0.9875     3.4093     0.0350 O.3     
  26 C26            0.3912     3.5470     0.4271 C.3     
  27 O27            0.9924     2.3104     0.0050 O.3     
  28 H28           -3.3277    -0.5891     0.0489 H       
  29 H29           -1.1855    -1.7935     0.0106 H       
  30 H30            1.7434    -0.3526     2.0677 H       
  31 H31            1.1544    -1.2813    -2.0666 H       
  32 H32            3.3301    -2.8214    -3.1276 H       
  33 H33            6.7803    -3.3944    -2.1604 H       
  34 H34            5.9423    -4.8957    -1.6997 H       
  35 H35            5.1320    -4.7276    -6.1020 H       
  36 H36            9.2278    -6.3875    -4.0249 H       
  37 H37            8.8108    -6.8835    -6.3980 H       
  38 H38            6.7332    -6.0415    -7.4727 H       
  39 H39            0.8517     4.3933    -0.0825 H       
  40 H40            0.4727     3.6589     1.5082 H       
@<TRIPOS>BOND
   1    1    6 ar
   2    1   27 1
   3    1    2 ar
   4    2    3 ar
   5    2   25 1
   6    3    4 ar
   7    3   24 1
   8    4    5 ar
   9    4   28 1
  10    5    6 ar
  11    5   29 1
  12    6    7 1
  13    7   10 2
  14    7    9 1
  15    8    9 2
  16    8   12 1
  17    9   30 1
  18   10   11 1
  19   10   31 1
  20   11   13 1
  21   11   12 1
  22   12   15 2
  23   13   14 2
  24   13   32 1
  25   14   15 1
  26   14   16 1
  27   16   17 1
  28   16   33 1
  29   16   34 1
  30   17   18 1
  31   18   20 ar
  32   18   19 ar
  33   19   23 ar
  34   19   35 1
  35   20   21 ar
  36   21   22 ar
  37   21   36 1
  38   22   23 ar
  39   22   37 1
  40   23   38 1
  41   25   26 1
  42   26   27 1
  43   26   39 1
  44   26   40 1

#	End of record

