#	Name: ASD09790017
#	Creating user name:	WinNT
#	Creation time:	15. 06. 2019 21:24

#	Modifying user name:	WinNT
#	Modification time:	15. 06. 2019 21:24

#	Program:	/corina/corina34_cracker 3.40 0067  02.08.2006

@<TRIPOS>MOLECULE
ASD09790017
  37   40    0    0    0
SMALL
NO_CHARGES


@<TRIPOS>ATOM
   1 C1            -0.2542     2.1074    -0.5404 C.2     
   2 C2            -0.4535     0.6716    -0.2441 C.ar    
   3 C3             0.5835    -0.0302     0.3901 C.ar    
   4 O4             1.7332     0.5850     0.7323 O.3     
   5 C5             2.0769     1.7869     0.2271 C.ar    
   6 C6             1.1276     2.6044    -0.4118 C.ar    
   7 C7            -1.6393     0.0254    -0.5857 C.ar    
   8 C8            -1.7904    -1.3151    -0.3005 C.ar    
   9 C9            -0.7672    -2.0133     0.3221 C.ar    
  10 C10            0.4096    -1.3827     0.6662 C.ar    
  11 C11            1.4929     3.8592    -0.9153 C.ar    
  12 C12            3.3862     2.2341     0.3343 C.ar    
  13 C13            3.7444     3.4736    -0.1732 C.ar    
  14 C14            2.8032     4.2864    -0.7943 C.ar    
  15 O15           -1.1736     2.8324    -0.8747 O.2     
  16 O16            0.5691     4.6495    -1.5174 O.3     
  17 O17            5.0291     3.8983    -0.0624 O.3     
  18 C18            5.2882     4.8233     0.8827 C.2     
  19 C19            6.6374     5.4157     0.9860 C.ar    
  20 O20            4.4123     5.1700     1.6496 O.2     
  21 C21            7.6450     5.0236     0.1023 C.ar    
  22 C22            8.9032     5.5816     0.2043 C.ar    
  23 C23            6.9093     6.3743     1.9641 C.ar    
  24 C24            8.1714     6.9241     2.0551 C.ar    
  25 C25            9.1670     6.5276     1.1805 C.ar    
  26 Br26          10.2698     5.0527    -0.9910 Br      
  27 H27           -2.4353     0.5709    -1.0706 H       
  28 H28           -2.7074    -1.8219    -0.5622 H       
  29 H29           -0.8934    -3.0635     0.5402 H       
  30 H30            1.1981    -1.9397     1.1503 H       
  31 H31            4.1288     1.6145     0.8150 H       
  32 H32            3.0947     5.2512    -1.1823 H       
  33 H33            0.1088     5.2474    -0.9126 H       
  34 H34            7.4403     4.2853    -0.6589 H       
  35 H35            6.1331     6.6850     2.6477 H       
  36 H36            8.3825     7.6659     2.8111 H       
  37 H37           10.1533     6.9610     1.2565 H       
@<TRIPOS>BOND
   1    1    2 1
   2    1    6 1
   3    1   15 2
   4    2    3 ar
   5    2    7 ar
   6    3    4 1
   7    3   10 ar
   8    4    5 1
   9    5   12 ar
  10    5    6 ar
  11    6   11 ar
  12    7    8 ar
  13    7   27 1
  14    8    9 ar
  15    8   28 1
  16    9   10 ar
  17    9   29 1
  18   10   30 1
  19   11   14 ar
  20   11   16 1
  21   12   13 ar
  22   12   31 1
  23   13   14 ar
  24   13   17 1
  25   14   32 1
  26   16   33 1
  27   17   18 1
  28   18   19 1
  29   18   20 2
  30   19   23 ar
  31   19   21 ar
  32   21   22 ar
  33   21   34 1
  34   22   26 1
  35   22   25 ar
  36   23   24 ar
  37   23   35 1
  38   24   25 ar
  39   24   36 1
  40   25   37 1

#	End of record

