#	Name: ASD01820025
#	Creating user name:	WinNT
#	Creation time:	15. 06. 2019 19:36

#	Modifying user name:	WinNT
#	Modification time:	15. 06. 2019 19:36

#	Program:	/corina/corina34_cracker 3.40 0067  02.08.2006

@<TRIPOS>MOLECULE
ASD01820025
  65   68    0    0    0
SMALL
NO_CHARGES


@<TRIPOS>ATOM
   1 C1             3.1912     0.1837     4.3268 C.ar    
   2 C2             3.4487    -1.0996     4.7754 C.ar    
   3 C3             2.4172    -2.0127     4.8879 C.ar    
   4 C4             1.1279    -1.6446     4.5520 C.ar    
   5 C5             0.8692    -0.3617     4.1029 C.ar    
   6 C6             1.9002     0.5544     3.9959 C.ar    
   7 C7             1.6191     1.9520     3.5073 C.3     
   8 O8             1.3077     2.7922     4.6204 O.3     
   9 Cl9            4.4868     1.3305     4.1861 Cl      
  10 Cl10          -0.7499     0.1001     3.6800 Cl      
  11 N11            1.0259     4.1343     4.2679 N.2     
  12 C12            0.7294     4.9951     5.1858 C.2     
  13 C13            0.4354     6.3954     4.8180 C.ar    
  14 C14            0.1122     7.3434     5.7959 C.ar    
  15 C15           -0.1553     8.6402     5.4075 C.ar    
  16 N16           -0.1094     8.9900     4.1366 N.ar    
  17 C17            0.1903     8.1287     3.1836 C.ar    
  18 C18            0.4779     6.8126     3.4825 C.ar    
  19 C19           -0.4010    10.3786     3.7718 C.3     
  20 C20            0.8944    11.1924     3.7862 C.3     
  21 C21            0.5899    12.6426     3.4053 C.3     
  22 N22            1.8304    13.4219     3.4190 N.ar    
  23 C23            2.5442    13.5060     2.3131 C.ar    
  24 C24            3.7187    14.2296     2.2809 C.ar    
  25 C25            4.1477    14.8788     3.4444 C.ar    
  26 C26            3.3585    14.7622     4.5947 C.ar    
  27 C27            2.1955    14.0219     4.5355 C.ar    
  28 C28            5.3985    15.6647     3.4583 C.2     
  29 N29            6.0323    15.8905     2.3543 N.2     
  30 O30            5.4388    15.5497     1.1147 O.3     
  31 C31            6.2501    15.8545    -0.0215 C.3     
  32 C32            5.5242    15.4525    -1.2794 C.ar    
  33 C33            4.6952    16.3566    -1.9189 C.ar    
  34 C34            4.0294    15.9871    -3.0741 C.ar    
  35 C35            4.1924    14.7148    -3.5892 C.ar    
  36 C36            5.0201    13.8108    -2.9504 C.ar    
  37 C37            5.6910    14.1810    -1.7983 C.ar    
  38 Cl38           4.4900    17.9544    -1.2719 Cl      
  39 Cl39           6.7311    13.0457    -0.9964 Cl      
  40 H40            4.4560    -1.3880     5.0373 H       
  41 H41            2.6186    -3.0143     5.2381 H       
  42 H42            0.3224    -2.3585     4.6398 H       
  43 H43            2.4981     2.3408     2.9932 H       
  44 H44            0.7742     1.9331     2.8188 H       
  45 H45            0.6967     4.6905     6.2214 H       
  46 H46            0.0725     7.0641     6.8384 H       
  47 H47           -0.4059     9.3789     6.1545 H       
  48 H48            0.2153     8.4591     2.1557 H       
  49 H49            0.7225     6.1128     2.6971 H       
  50 H50           -0.8376    10.4080     2.7735 H       
  51 H51           -1.1044    10.8024     4.4886 H       
  52 H52            1.3310    11.1630     4.7845 H       
  53 H53            1.5978    10.7686     3.0694 H       
  54 H54            0.1534    12.6721     2.4070 H       
  55 H55           -0.1134    13.0665     4.1220 H       
  56 H56            2.2050    13.0013     1.4206 H       
  57 H57            4.2983    14.2939     1.3718 H       
  58 H58            3.6534    15.2474     5.5134 H       
  59 H59            1.5798    13.9260     5.4176 H       
  60 H60            5.7835    16.0506     4.3906 H       
  61 H61            6.4538    16.9250    -0.0459 H       
  62 H62            7.1903    15.3071     0.0462 H       
  63 H63            3.3819    16.6928    -3.5733 H       
  64 H64            3.6724    14.4268    -4.4909 H       
  65 H65            5.1465    12.8166    -3.3529 H       
@<TRIPOS>BOND
   1    1    2 ar
   2    1    9 1
   3    1    6 ar
   4    2    3 ar
   5    2   40 1
   6    3    4 ar
   7    3   41 1
   8    4    5 ar
   9    4   42 1
  10    5    6 ar
  11    5   10 1
  12    6    7 1
  13    7    8 1
  14    7   43 1
  15    7   44 1
  16    8   11 1
  17   11   12 2
  18   12   13 1
  19   12   45 1
  20   13   14 ar
  21   13   18 ar
  22   14   15 ar
  23   14   46 1
  24   15   16 ar
  25   15   47 1
  26   16   17 ar
  27   16   19 1
  28   17   18 ar
  29   17   48 1
  30   18   49 1
  31   19   20 1
  32   19   50 1
  33   19   51 1
  34   20   21 1
  35   20   52 1
  36   20   53 1
  37   21   22 1
  38   21   54 1
  39   21   55 1
  40   22   23 ar
  41   22   27 ar
  42   23   24 ar
  43   23   56 1
  44   24   25 ar
  45   24   57 1
  46   25   26 ar
  47   25   28 1
  48   26   27 ar
  49   26   58 1
  50   27   59 1
  51   28   29 2
  52   28   60 1
  53   29   30 1
  54   30   31 1
  55   31   32 1
  56   31   61 1
  57   31   62 1
  58   32   33 ar
  59   32   37 ar
  60   33   34 ar
  61   33   38 1
  62   34   35 ar
  63   34   63 1
  64   35   36 ar
  65   35   64 1
  66   36   37 ar
  67   36   65 1
  68   37   39 1

#	End of record

