#	Name: ASD00122069
#	Creating user name:	WinNT
#	Creation time:	15. 06. 2019 18:31

#	Modifying user name:	WinNT
#	Modification time:	15. 06. 2019 18:31

#	Program:	/corina/corina34_cracker 3.40 0067  02.08.2006

@<TRIPOS>MOLECULE
ASD00122069
  27   29    0    0    0
SMALL
NO_CHARGES


@<TRIPOS>ATOM
   1 C1            -0.0167     1.3791     0.0096 C.ar    
   2 C2             0.0021    -0.0041     0.0020 C.ar    
   3 C3             1.1725     2.0866     0.0021 C.ar    
   4 C4             2.3780     1.4112    -0.0131 C.ar    
   5 C5             2.3961     0.0287    -0.0207 C.ar    
   6 C6             1.2086    -0.6786    -0.0131 C.ar    
   7 C7             1.1529     3.5935     0.0098 C.3     
   8 S8             1.1610     4.1882     1.7194 S.3     
   9 C9             1.1357     5.9274     1.4384 C.ar    
  10 C10            1.1340     6.8303     2.5160 C.ar    
  11 C11            1.1133     8.2055     2.2290 C.ar    
  12 N12            1.0960     8.6004     0.9599 N.ar    
  13 C13            1.0980     7.7185    -0.0177 C.ar    
  14 N14            1.1234     6.4170     0.2019 N.ar    
  15 N15            1.1486     6.7040     3.8645 N.2     
  16 C16            1.1385     7.8855     4.4104 C.2     
  17 N17            1.1167     8.8453     3.4426 N.pl3   
  18 Cl18          -1.5315     2.2269     0.0214 Cl      
  19 H19           -0.9257    -0.5569     0.0083 H       
  20 H20            3.3061     1.9634    -0.0193 H       
  21 H21            3.3385    -0.4987    -0.0325 H       
  22 H22            1.2234    -1.7585    -0.0194 H       
  23 H23            2.0332     3.9710    -0.5103 H       
  24 H24            0.2535     3.9478    -0.4938 H       
  25 H25            1.0832     8.0733    -1.0377 H       
  26 H26            1.1455     8.0771     5.4732 H       
  27 H27            1.1061     9.8046     3.5858 H       
@<TRIPOS>BOND
   1    1    2 ar
   2    1    3 ar
   3    1   18 1
   4    2    6 ar
   5    2   19 1
   6    3    4 ar
   7    3    7 1
   8    4    5 ar
   9    4   20 1
  10    5    6 ar
  11    5   21 1
  12    6   22 1
  13    7    8 1
  14    7   23 1
  15    7   24 1
  16    8    9 1
  17    9   10 ar
  18    9   14 ar
  19   10   11 ar
  20   10   15 1
  21   11   12 ar
  22   11   17 1
  23   12   13 ar
  24   13   14 ar
  25   13   25 1
  26   15   16 2
  27   16   17 1
  28   16   26 1
  29   17   27 1

#	End of record

