#	Name: ASD01900201
#	Creating user name:	WinNT
#	Creation time:	15. 06. 2019 19:51

#	Modifying user name:	WinNT
#	Modification time:	15. 06. 2019 19:51

#	Program:	/corina/corina34_cracker 3.40 0067  02.08.2006

@<TRIPOS>MOLECULE
ASD01900201
  45   49    0    0    0
SMALL
NO_CHARGES


@<TRIPOS>ATOM
   1 N1            -0.0167     1.3829     0.0096 N.pl3   
   2 S2            -1.0982    -1.1870     0.2910 S.3     
   3 C3             0.1800     0.0157     0.1373 C.2     
   4 N4             1.3350    -0.5773     0.1613 N.2     
   5 C5             1.3353    -1.8940     0.2731 C.2     
   6 C6             2.5075    -2.8269     0.1811 C.2     
   7 C7             2.3952    -4.0119    -0.5745 C.2     
   8 C8             1.1929    -4.3373    -1.4074 C.3     
   9 C9            -0.0056    -4.8047    -0.5635 C.3     
  10 C10           -0.1018    -3.9127     0.6842 C.3     
  11 C11            0.1097    -2.4565     0.4118 C.2     
  12 N12            3.5077    -4.6718    -0.4312 N.2     
  13 N13            4.3753    -3.9118     0.3697 N.pl3   
  14 C14            3.7343    -2.7705     0.7250 C.2     
  15 C15            1.0668     2.2223    -0.2298 C.ar    
  16 C16            0.8686     3.5957    -0.3084 C.ar    
  17 C17            1.9532     4.4238    -0.5466 C.ar    
  18 C18            3.2048     3.8495    -0.6990 C.ar    
  19 C19            3.3342     2.4687    -0.6089 C.ar    
  20 N20            2.2775     1.7046    -0.3751 N.ar    
  21 N21            4.5860     1.8838    -0.7604 N.3     
  22 C22            4.5034     0.4175    -0.6299 C.3     
  23 C23            5.0825    -0.1901    -1.9248 C.3     
  24 C24            5.9803     0.9495    -2.4745 C.3     
  25 C25            5.1653     2.2069    -2.0817 C.3     
  26 H26           -0.9102     1.7533     0.0834 H       
  27 H27            0.9029    -3.4491    -1.9688 H       
  28 H28            1.4560    -5.1261    -2.1121 H       
  29 H29           -0.9215    -4.7167    -1.1480 H       
  30 H30            0.1412    -5.8418    -0.2618 H       
  31 H31           -1.0886    -4.0428     1.1285 H       
  32 H32            0.6459    -4.2430     1.4052 H       
  33 H33            5.2775    -4.1603     0.6251 H       
  34 H34            4.1341    -1.9694     1.3289 H       
  35 H35           -0.1201     4.0126    -0.1854 H       
  36 H36            1.8258     5.4942    -0.6125 H       
  37 H37            4.0702     4.4680    -0.8861 H       
  38 H38            5.0889     0.0881     0.2285 H       
  39 H39            3.4633     0.1138    -0.5107 H       
  40 H40            5.6773    -1.0760    -1.7023 H       
  41 H41            4.2854    -0.4268    -2.6295 H       
  42 H42            6.9552     0.9481    -1.9872 H       
  43 H43            6.0864     0.8753    -3.5568 H       
  44 H44            4.3739     2.3886    -2.8089 H       
  45 H45            5.8198     3.0753    -2.0070 H       
@<TRIPOS>BOND
   1    1    3 1
   2    1   15 1
   3    1   26 1
   4    2    3 1
   5    2   11 1
   6    3    4 2
   7    4    5 1
   8    5    6 1
   9    5   11 2
  10    6    7 1
  11    6   14 2
  12    7    8 1
  13    7   12 2
  14    8    9 1
  15    8   27 1
  16    8   28 1
  17    9   10 1
  18    9   29 1
  19    9   30 1
  20   10   11 1
  21   10   31 1
  22   10   32 1
  23   12   13 1
  24   13   14 1
  25   13   33 1
  26   14   34 1
  27   15   16 ar
  28   15   20 ar
  29   16   17 ar
  30   16   35 1
  31   17   18 ar
  32   17   36 1
  33   18   19 ar
  34   18   37 1
  35   19   20 ar
  36   19   21 1
  37   21   22 1
  38   21   25 1
  39   22   23 1
  40   22   38 1
  41   22   39 1
  42   23   24 1
  43   23   40 1
  44   23   41 1
  45   24   25 1
  46   24   42 1
  47   24   43 1
  48   25   44 1
  49   25   45 1

#	End of record

