#	Name: ASD01912839
#	Creating user name:	WinNT
#	Creation time:	15. 06. 2019 20:00

#	Modifying user name:	WinNT
#	Modification time:	15. 06. 2019 20:00

#	Program:	/corina/corina34_cracker 3.40 0067  02.08.2006

@<TRIPOS>MOLECULE
ASD01912839
  50   54    0    0    0
SMALL
NO_CHARGES


@<TRIPOS>ATOM
   1 C1            -0.0165     1.3669     0.0096 C.2     
   2 N2             0.0021    -0.0041     0.0020 N.pl3   
   3 C3            -1.2023    -0.6921     0.0098 C.2     
   4 C4            -2.3629    -0.0500     0.0243 C.2     
   5 N5            -2.4359     1.3309     0.0320 N.am    
   6 C6            -1.3019     2.0668     0.0309 C.2     
   7 C7             1.3015     1.7836    -0.0008 C.2     
   8 C8             2.0550     0.6110    -0.0143 C.2     
   9 N9             1.2244    -0.4045    -0.0118 N.2     
  10 O10           -1.3488     3.2837     0.0380 O.2     
  11 C11           -3.6786     1.9639     0.0468 C.ar    
  12 C12            3.5595     0.5249    -0.0295 C.3     
  13 O13            4.1120     1.8427    -0.0282 O.3     
  14 C14            5.4672     1.9435    -0.0410 C.ar    
  15 C15            6.0711     3.1925    -0.0405 C.ar    
  16 C16            7.4489     3.2923    -0.0536 C.ar    
  17 C17            8.2259     2.1487    -0.0672 C.ar    
  18 C18            7.6265     0.9027    -0.0682 C.ar    
  19 C19            6.2492     0.7976    -0.0489 C.ar    
  20 N20           -3.7429     3.2838    -0.0463 N.ar    
  21 C21           -4.8355     1.2035     0.1532 C.ar    
  22 C22           -6.0665     1.8409     0.1671 C.ar    
  23 C23           -6.0983     3.2220     0.0738 C.ar    
  24 C24           -4.9023     3.9232    -0.0360 C.ar    
  25 N25           -4.9240     5.3097    -0.1303 N.3     
  26 C26           -3.5578     5.8535    -0.2380 C.3     
  27 C27           -5.6998     5.7486    -1.3099 C.3     
  28 C28           -4.9877     7.0358    -1.7951 C.3     
  29 C29           -3.4985     6.6870    -1.5354 C.3     
  30 H30           -1.1950    -1.7721     0.0036 H       
  31 H31           -3.2784    -0.6229     0.0300 H       
  32 H32            1.6684     2.7994     0.0006 H       
  33 H33            3.9016    -0.0134     0.8543 H       
  34 H34            3.8840    -0.0043    -0.9255 H       
  35 H35            5.4647     4.0861    -0.0302 H       
  36 H36            7.9195     4.2643    -0.0536 H       
  37 H37            9.3029     2.2287    -0.0775 H       
  38 H38            8.2356     0.0109    -0.0796 H       
  39 H39            5.7814    -0.1759    -0.0497 H       
  40 H40           -4.7771     0.1275     0.2240 H       
  41 H41           -6.9811     1.2724     0.2486 H       
  42 H42           -7.0413     3.7483     0.0815 H       
  43 H43           -3.3427     6.4889     0.6211 H       
  44 H44           -2.8368     5.0375    -0.2882 H       
  45 H45           -5.6737     4.9846    -2.0868 H       
  46 H46           -6.7292     5.9681    -1.0268 H       
  47 H47           -5.1695     7.2062    -2.8563 H       
  48 H48           -5.2953     7.8986    -1.2044 H       
  49 H49           -2.9110     7.5927    -1.3851 H       
  50 H50           -3.0926     6.0948    -2.3557 H       
@<TRIPOS>BOND
   1    1    2 1
   2    1    7 2
   3    1    6 1
   4    2    3 1
   5    2    9 1
   6    3    4 2
   7    3   30 1
   8    4    5 1
   9    4   31 1
  10    5    6 am
  11    5   11 1
  12    6   10 2
  13    7    8 1
  14    7   32 1
  15    8    9 2
  16    8   12 1
  17   11   20 ar
  18   11   21 ar
  19   12   13 1
  20   12   33 1
  21   12   34 1
  22   13   14 1
  23   14   15 ar
  24   14   19 ar
  25   15   16 ar
  26   15   35 1
  27   16   17 ar
  28   16   36 1
  29   17   18 ar
  30   17   37 1
  31   18   19 ar
  32   18   38 1
  33   19   39 1
  34   20   24 ar
  35   21   22 ar
  36   21   40 1
  37   22   23 ar
  38   22   41 1
  39   23   24 ar
  40   23   42 1
  41   24   25 1
  42   25   26 1
  43   25   27 1
  44   26   29 1
  45   26   43 1
  46   26   44 1
  47   27   28 1
  48   27   45 1
  49   27   46 1
  50   28   29 1
  51   28   47 1
  52   28   48 1
  53   29   49 1
  54   29   50 1

#	End of record

