#	Name: ASD02562070
#	Creating user name:	WinNT
#	Creation time:	15. 06. 2019 20:25

#	Modifying user name:	WinNT
#	Modification time:	15. 06. 2019 20:25

#	Program:	/corina/corina34_cracker 3.40 0067  02.08.2006

@<TRIPOS>MOLECULE
ASD02562070
  44   47    0    0    0
SMALL
NO_CHARGES


@<TRIPOS>ATOM
   1 C1             0.0988     1.0494     1.1089 C.2     
   2 C2             0.2515    -0.4061     1.1336 C.2     
   3 C3             1.4575    -0.9589     0.8141 C.2     
   4 N4             2.5145    -0.1666     0.4746 N.pl3   
   5 C5             2.3940     1.2039     0.4447 C.2     
   6 C6             1.1626     1.8179     0.7681 C.2     
   7 C7             3.8029    -0.4699     0.1198 C.2     
   8 C8             4.4422     0.7273    -0.1195 C.2     
   9 N9             3.5583     1.7207     0.0870 N.2     
  10 N10            4.3600    -1.7443     0.0209 N.3     
  11 C11            5.8559     0.8919    -0.5313 C.ar    
  12 C12            3.3300    -2.7818     0.1651 C.3     
  13 C13            3.8037    -4.0686    -0.5135 C.3     
  14 C14            2.7309    -5.1491    -0.3632 C.3     
  15 C15            2.4822    -5.4177     1.1224 C.3     
  16 C16            2.0085    -4.1309     1.8010 C.3     
  17 C17            3.0812    -3.0504     1.6507 C.3     
  18 C18            6.8642     0.1952     0.1333 C.ar    
  19 C19            8.1793     0.3522    -0.2551 C.ar    
  20 C20            8.4985     1.1986    -1.3016 C.ar    
  21 C21            7.5031     1.8934    -1.9654 C.ar    
  22 C22            6.1832     1.7406    -1.5901 C.ar    
  23 Cl23           4.9350     2.6129    -2.4238 Cl      
  24 C24           -0.8548    -1.2426     1.4902 C.1     
  25 N25           -1.7323    -1.9061     1.7731 N.1     
  26 H26           -0.8493     1.5046     1.3545 H       
  27 H27            1.5761    -2.0322     0.8305 H       
  28 H28            1.0698     2.8936     0.7446 H       
  29 H29            4.8632    -1.8526    -0.8470 H       
  30 H30            2.4054    -2.4434    -0.3027 H       
  31 H31            3.9809    -3.8772    -1.5718 H       
  32 H32            4.7282    -4.4069    -0.0456 H       
  33 H33            1.8064    -4.8108    -0.8310 H       
  34 H34            3.0684    -6.0659    -0.8467 H       
  35 H35            1.7180    -6.1875     1.2294 H       
  36 H36            3.4067    -5.7561     1.5902 H       
  37 H37            1.0840    -3.7925     1.3332 H       
  38 H38            1.8313    -4.3222     2.8593 H       
  39 H39            4.0058    -3.3887     2.1185 H       
  40 H40            2.7438    -2.1336     2.1342 H       
  41 H41            6.6168    -0.4657     0.9508 H       
  42 H42            8.9610    -0.1868     0.2595 H       
  43 H43            9.5292     1.3178    -1.6015 H       
  44 H44            7.7585     2.5530    -2.7815 H       
@<TRIPOS>BOND
   1    1    2 1
   2    1    6 2
   3    1   26 1
   4    2    3 2
   5    2   24 1
   6    3    4 1
   7    3   27 1
   8    4    5 1
   9    4    7 1
  10    5    6 1
  11    5    9 2
  12    6   28 1
  13    7    8 2
  14    7   10 1
  15    8    9 1
  16    8   11 1
  17   10   12 1
  18   10   29 1
  19   11   18 ar
  20   11   22 ar
  21   12   13 1
  22   12   17 1
  23   12   30 1
  24   13   14 1
  25   13   31 1
  26   13   32 1
  27   14   15 1
  28   14   33 1
  29   14   34 1
  30   15   16 1
  31   15   35 1
  32   15   36 1
  33   16   17 1
  34   16   37 1
  35   16   38 1
  36   17   39 1
  37   17   40 1
  38   18   19 ar
  39   18   41 1
  40   19   20 ar
  41   19   42 1
  42   20   21 ar
  43   20   43 1
  44   21   22 ar
  45   21   44 1
  46   22   23 1
  47   24   25 3

#	End of record

