#	Name: ASD01328004
#	Creating user name:	WinNT
#	Creation time:	15. 06. 2019 19:16

#	Modifying user name:	WinNT
#	Modification time:	15. 06. 2019 19:16

#	Program:	/corina/corina34_cracker 3.40 0067  02.08.2006

@<TRIPOS>MOLECULE
ASD01328004
  46   47    0    0    0
SMALL
NO_CHARGES


@<TRIPOS>ATOM
   1 N1            -0.0162     1.3436     0.0094 N.am    
   2 C2             1.2424     2.0932     0.0014 C.3     
   3 C3             1.0682     3.3747    -0.8179 C.3     
   4 O4             0.7634     3.0375    -2.1727 O.3     
   5 C5             2.3692     4.1819    -0.7716 C.3     
   6 O6             2.1922     5.4145    -1.4726 O.3     
   7 C7             2.7264     4.4703     0.6898 C.3     
   8 O8             3.9763     5.1605     0.7486 O.3     
   9 C9             2.8366     3.1466     1.4509 C.3     
  10 O10            1.6039     2.4319     1.3419 O.3     
  11 C11            3.1341     3.4288     2.9249 C.3     
  12 O12            3.3520     2.1947     3.6116 O.3     
  13 C13            0.0021    -0.0041     0.0020 C.2     
  14 S14            1.4961    -0.8398    -0.0167 S.2     
  15 N15           -2.3785    -0.0099     0.0247 N.2     
  16 N16           -1.1558    -0.6938     0.0094 N.am    
  17 C17           -3.4935    -0.6740     0.0318 C.2     
  18 C18           -4.7801     0.0457     0.0479 C.ar    
  19 C19           -5.9818    -0.6673     0.0556 C.ar    
  20 C20           -7.1821     0.0097     0.0706 C.ar    
  21 C21           -7.1985     1.3985     0.0782 C.ar    
  22 C22           -6.0065     2.1113     0.0707 C.ar    
  23 C23           -4.8014     1.4428     0.0614 C.ar    
  24 O24           -8.3841     2.0617     0.0926 O.3     
  25 C25           -8.3287     3.4896     0.0997 C.3     
  26 H26           -0.8627     1.8170     0.0241 H       
  27 H27            2.0273     1.4814    -0.4432 H       
  28 H28            0.2554     3.9676    -0.3984 H       
  29 H29           -0.0472     2.5206    -2.2765 H       
  30 H30            3.1706     3.6089    -1.2379 H       
  31 H31            1.9571     5.3067    -2.4044 H       
  32 H32            1.9484     5.0868     1.1401 H       
  33 H33            3.9804     6.0073     0.2819 H       
  34 H34            3.6423     2.5485     1.0253 H       
  35 H35            4.0260     4.0504     3.0030 H       
  36 H36            2.2879     3.9495     3.3732 H       
  37 H37            3.5466     2.2975     4.5532 H       
  38 H38           -1.1427    -1.6637     0.0040 H       
  39 H39           -3.4788    -1.7539     0.0259 H       
  40 H40           -5.9700    -1.7472     0.0494 H       
  41 H41           -8.1114    -0.5405     0.0762 H       
  42 H42           -6.0240     3.1912     0.0762 H       
  43 H43           -3.8750     1.9979     0.0604 H       
  44 H44           -9.3414     3.8925     0.1111 H       
  45 H45           -7.7930     3.8280     0.9867 H       
  46 H46           -7.8093     3.8375    -0.7932 H       
@<TRIPOS>BOND
   1    1   13 am
   2    1    2 1
   3    1   26 1
   4    2    3 1
   5    2   10 1
   6    2   27 1
   7    3    4 1
   8    3    5 1
   9    3   28 1
  10    4   29 1
  11    5    6 1
  12    5    7 1
  13    5   30 1
  14    6   31 1
  15    7    8 1
  16    7    9 1
  17    7   32 1
  18    8   33 1
  19    9   10 1
  20    9   11 1
  21    9   34 1
  22   11   12 1
  23   11   35 1
  24   11   36 1
  25   12   37 1
  26   13   14 2
  27   13   16 am
  28   15   16 1
  29   15   17 2
  30   16   38 1
  31   17   18 1
  32   17   39 1
  33   18   19 ar
  34   18   23 ar
  35   19   20 ar
  36   19   40 1
  37   20   21 ar
  38   20   41 1
  39   21   22 ar
  40   21   24 1
  41   22   23 ar
  42   22   42 1
  43   23   43 1
  44   24   25 1
  45   25   44 1
  46   25   45 1
  47   25   46 1

#	End of record

