#	Name: ASD01948073
#	Creating user name:	WinNT
#	Creation time:	15. 06. 2019 20:13

#	Modifying user name:	WinNT
#	Modification time:	15. 06. 2019 20:13

#	Program:	/corina/corina34_cracker 3.40 0067  02.08.2006

@<TRIPOS>MOLECULE
ASD01948073
  33   34    0    0    0
SMALL
NO_CHARGES


@<TRIPOS>ATOM
   1 C1            -0.0167     1.3781     0.0096 C.ar    
   2 C2             0.0021    -0.0041     0.0020 C.ar    
   3 C3             1.2084    -0.6789    -0.0132 C.ar    
   4 C4             2.3960     0.0285    -0.0212 C.ar    
   5 C5             2.3773     1.4107    -0.0145 C.ar    
   6 C6             1.1709     2.0855     0.0021 C.ar    
   7 S7            -1.5544     2.2383     0.0216 S.o2    
   8 O8            -1.2971     3.5278    -0.5171 O.2     
   9 O9            -2.5173     1.3465    -0.5231 O.2     
  10 O10           -1.9407     2.4503     1.4784 O.3     
  11 C11            3.7112    -0.7071    -0.0368 C.3     
  12 C12           -1.1905     3.4737     2.1356 C.3     
  13 O13           -2.1856     5.0228     4.9950 O.3     
  14 C14           -0.9283     4.6703     4.4036 C.3     
  15 C15           -1.6607     3.5990     3.5862 C.3     
  16 C16           -2.8285     4.5706     3.7962 C.3     
  17 C17           -1.8162     2.2528     4.2965 C.3     
  18 H18           -0.9258    -0.5567     0.0083 H       
  19 H19            1.2231    -1.7588    -0.0184 H       
  20 H20            3.3051     1.9634    -0.0205 H       
  21 H21            1.1563     3.1654     0.0077 H       
  22 H22            4.0186    -0.8800    -1.0681 H       
  23 H23            4.4676    -0.1100     0.4726 H       
  24 H24            3.5986    -1.6635     0.4740 H       
  25 H25           -0.1315     3.2161     2.1179 H       
  26 H26           -1.3422     4.4226     1.6212 H       
  27 H27           -0.5003     5.4642     3.7915 H       
  28 H28           -0.2150     4.2578     5.1170 H       
  29 H29           -3.7800     4.0708     3.9776 H       
  30 H30           -2.8966     5.3384     3.0256 H       
  31 H31           -0.8326     1.8130     4.4610 H       
  32 H32           -2.3121     2.4031     5.2554 H       
  33 H33           -2.4149     1.5832     3.6789 H       
@<TRIPOS>BOND
   1    1    2 ar
   2    1    6 ar
   3    1    7 1
   4    2    3 ar
   5    2   18 1
   6    3    4 ar
   7    3   19 1
   8    4    5 ar
   9    4   11 1
  10    5    6 ar
  11    5   20 1
  12    6   21 1
  13    7    8 2
  14    7    9 2
  15    7   10 1
  16   10   12 1
  17   11   22 1
  18   11   23 1
  19   11   24 1
  20   12   15 1
  21   12   25 1
  22   12   26 1
  23   13   14 1
  24   13   16 1
  25   14   15 1
  26   14   27 1
  27   14   28 1
  28   15   16 1
  29   15   17 1
  30   16   29 1
  31   16   30 1
  32   17   31 1
  33   17   32 1
  34   17   33 1

#	End of record

