#	Name: ASD01870104
#	Creating user name:	WinNT
#	Creation time:	15. 06. 2019 19:38

#	Modifying user name:	WinNT
#	Modification time:	15. 06. 2019 19:38

#	Program:	/corina/corina34_cracker 3.40 0067  02.08.2006

@<TRIPOS>MOLECULE
ASD01870104
  41   43    0    0    0
SMALL
NO_CHARGES


@<TRIPOS>ATOM
   1 C1            -1.2463     1.5272    -1.1278 C.2     
   2 C2            -1.3217     0.0548    -1.2171 C.ar    
   3 C3            -1.3712    -0.5706    -2.4646 C.ar    
   4 C4            -1.4411    -1.9461    -2.5408 C.ar    
   5 C5            -1.4622    -2.7060    -1.3846 C.ar    
   6 C6            -1.4139    -2.0928    -0.1451 C.ar    
   7 C7            -1.3381    -0.7185    -0.0545 C.ar    
   8 O8            -1.2271     2.1970    -2.1411 O.2     
   9 O9            -1.2043     2.1278     0.0778 O.3     
  10 C10           -1.0469     3.4758     0.0894 C.ar    
  11 C11           -2.1569     4.3153    -0.0768 C.ar    
  12 C12           -1.9829     5.7009    -0.0626 C.ar    
  13 C13           -0.7228     6.2339     0.1146 C.ar    
  14 C14            0.3717     5.3999     0.2786 C.ar    
  15 C15            0.2116     4.0279     0.2716 C.ar    
  16 C16           -3.5016     3.7384    -0.2664 C.2     
  17 N17           -4.5664     4.5491    -0.4259 N.am    
  18 O18           -3.6492     2.5315    -0.2786 O.2     
  19 C19           -5.8295     4.0033    -0.6790 C.ar    
  20 C20           -6.7252     4.6732    -1.5045 C.ar    
  21 C21           -7.9718     4.1309    -1.7520 C.ar    
  22 C22           -8.3282     2.9234    -1.1795 C.ar    
  23 C23           -7.4394     2.2554    -0.3577 C.ar    
  24 C24           -6.1891     2.7887    -0.1109 C.ar    
  25 N25           -9.6644     2.3453    -1.4467 N.pl3   
  26 O26          -10.4486     2.9329    -2.1700 O.2     
  27 O27           -9.9796     1.2820    -0.9431 O.2     
  28 Cl28          -6.2784     6.1891    -2.2229 Cl      
  29 Cl29          -0.5073     7.9564     0.1316 Cl      
  30 H30           -1.3551     0.0213    -3.3678 H       
  31 H31           -1.4797    -2.4311    -3.5050 H       
  32 H32           -1.5170    -3.7826    -1.4499 H       
  33 H33           -1.4312    -2.6919     0.7534 H       
  34 H34           -1.2960    -0.2414     0.9135 H       
  35 H35           -2.8335     6.3541    -0.1905 H       
  36 H36            1.3549     5.8250     0.4168 H       
  37 H37            1.0687     3.3844     0.4045 H       
  38 H38           -4.4570     5.5110    -0.3653 H       
  39 H39           -8.6686     4.6507    -2.3929 H       
  40 H40           -7.7212     1.3128     0.0880 H       
  41 H41           -5.4938     2.2636     0.5273 H       
@<TRIPOS>BOND
   1    1    2 1
   2    1    8 2
   3    1    9 1
   4    2    3 ar
   5    2    7 ar
   6    3    4 ar
   7    3   30 1
   8    4    5 ar
   9    4   31 1
  10    5    6 ar
  11    5   32 1
  12    6    7 ar
  13    6   33 1
  14    7   34 1
  15    9   10 1
  16   10   11 ar
  17   10   15 ar
  18   11   12 ar
  19   11   16 1
  20   12   13 ar
  21   12   35 1
  22   13   14 ar
  23   13   29 1
  24   14   15 ar
  25   14   36 1
  26   15   37 1
  27   16   17 am
  28   16   18 2
  29   17   19 1
  30   17   38 1
  31   19   20 ar
  32   19   24 ar
  33   20   21 ar
  34   20   28 1
  35   21   22 ar
  36   21   39 1
  37   22   23 ar
  38   22   25 1
  39   23   24 ar
  40   23   40 1
  41   24   41 1
  42   25   26 2
  43   25   27 2

#	End of record

