#	Name: ASD01811877
#	Creating user name:	WinNT
#	Creation time:	15. 06. 2019 19:27

#	Modifying user name:	WinNT
#	Modification time:	15. 06. 2019 19:27

#	Program:	/corina/corina34_cracker 3.40 0067  02.08.2006

@<TRIPOS>MOLECULE
ASD01811877
  60   64    0    0    0
SMALL
NO_CHARGES


@<TRIPOS>ATOM
   1 N1            -0.1889     0.8030    -0.4724 N.ar    
   2 C2            -0.0249    -0.4800    -0.2266 C.ar    
   3 C3             1.2396    -1.0262    -0.0767 C.ar    
   4 C4             2.3538    -0.2129    -0.1863 C.ar    
   5 C5             0.8475     1.6233    -0.5863 C.ar    
   6 C6             0.9805     3.0673    -0.8514 C.2     
   7 C7             2.1597     1.1406    -0.4464 C.ar    
   8 N8             3.0173     2.2070    -0.6134 N.pl3   
   9 C9             2.3176     3.3409    -0.8520 C.2     
  10 C10           -0.1123     4.0244    -1.0721 C.2     
  11 O11           -1.2680     3.6450    -1.0453 O.2     
  12 N12            0.1656     5.3226    -1.3044 N.am    
  13 C13            4.4783     2.1248    -0.5424 C.3     
  14 C14            5.0755     3.4533    -0.9292 C.ar    
  15 C15            5.8618     4.9545    -2.6210 C.ar    
  16 C16            5.3150     3.7394    -2.2612 C.ar    
  17 C17            5.3770     4.3841     0.0484 C.ar    
  18 C18            5.9237     5.6025    -0.3003 C.ar    
  19 C19            6.1723     5.8938    -1.6399 C.ar    
  20 C20            6.7609     7.2019    -2.0209 C.2     
  21 N21            7.0383     7.5993    -3.2446 N.2     
  22 N22            7.5789     8.8894    -3.1714 N.pl3   
  23 C23            7.6186     9.2555    -1.8722 C.2     
  24 C24            7.1157     8.2397    -1.1373 C.2     
  25 C25           -0.9240     6.2769    -1.5245 C.3     
  26 O26           -1.9876     8.9000    -1.2041 O.3     
  27 C27           -1.5298     8.4948    -2.4957 C.3     
  28 C28           -0.4063     7.4669    -2.3382 C.3     
  29 C29           -1.4430     6.7823    -0.1749 C.3     
  30 C30           -2.5265     7.8366    -0.4160 C.3     
  31 O31            0.0138     7.0171    -3.6279 O.3     
  32 C32            8.0248     9.7004    -4.3071 C.3     
  33 C33            3.7417    -0.7782    -0.0276 C.3     
  34 H34           -0.8918    -1.1183    -0.1399 H       
  35 H35            1.3550    -2.0809     0.1250 H       
  36 H36            2.7520     4.3156    -1.0182 H       
  37 H37            1.0870     5.6251    -1.3258 H       
  38 H38            4.7790     1.8736     0.4747 H       
  39 H39            4.8325     1.3541    -1.2269 H       
  40 H40            6.0488     5.1768    -3.6612 H       
  41 H41            5.0740     3.0106    -3.0209 H       
  42 H42            5.1839     4.1573     1.0865 H       
  43 H43            6.1580     6.3289     0.4637 H       
  44 H44            7.9836    10.1968    -1.4886 H       
  45 H45            7.0072     8.2251    -0.0628 H       
  46 H46           -1.7334     5.7875    -2.0664 H       
  47 H47           -2.3553     8.0489    -3.0506 H       
  48 H48           -1.1547     9.3632    -3.0373 H       
  49 H49            0.4358     7.9245    -1.8189 H       
  50 H50           -1.8640     5.9495     0.3885 H       
  51 H51           -0.6218     7.2260     0.3881 H       
  52 H52           -2.8693     8.2308     0.5406 H       
  53 H53           -3.3650     7.3821    -0.9436 H       
  54 H54            0.3496     7.7209    -4.1997 H       
  55 H55            7.1926    10.3017    -4.6731 H       
  56 H56            8.8350    10.3565    -3.9892 H       
  57 H57            8.3784     9.0462    -5.1041 H       
  58 H58            4.1504    -1.0188    -1.0090 H       
  59 H59            4.3800    -0.0422     0.4613 H       
  60 H60            3.6986    -1.6823     0.5797 H       
@<TRIPOS>BOND
   1    1    2 ar
   2    1    5 ar
   3    2    3 ar
   4    2   34 1
   5    3    4 ar
   6    3   35 1
   7    4    7 ar
   8    4   33 1
   9    5    7 ar
  10    5    6 1
  11    6    9 2
  12    6   10 1
  13    7    8 1
  14    8    9 1
  15    8   13 1
  16    9   36 1
  17   10   11 2
  18   10   12 am
  19   12   25 1
  20   12   37 1
  21   13   14 1
  22   13   38 1
  23   13   39 1
  24   14   17 ar
  25   14   16 ar
  26   15   16 ar
  27   15   19 ar
  28   15   40 1
  29   16   41 1
  30   17   18 ar
  31   17   42 1
  32   18   19 ar
  33   18   43 1
  34   19   20 1
  35   20   21 2
  36   20   24 1
  37   21   22 1
  38   22   23 1
  39   22   32 1
  40   23   24 2
  41   23   44 1
  42   24   45 1
  43   25   29 1
  44   25   28 1
  45   25   46 1
  46   26   27 1
  47   26   30 1
  48   27   28 1
  49   27   47 1
  50   27   48 1
  51   28   31 1
  52   28   49 1
  53   29   30 1
  54   29   50 1
  55   29   51 1
  56   30   52 1
  57   30   53 1
  58   31   54 1
  59   32   55 1
  60   32   56 1
  61   32   57 1
  62   33   58 1
  63   33   59 1
  64   33   60 1

#	End of record

