#	Name: ASD01910536
#	Creating user name:	WinNT
#	Creation time:	15. 06. 2019 19:56

#	Modifying user name:	WinNT
#	Modification time:	15. 06. 2019 19:56

#	Program:	/corina/corina34_cracker 3.40 0067  02.08.2006

@<TRIPOS>MOLECULE
ASD01910536
  44   47    0    0    0
SMALL
NO_CHARGES


@<TRIPOS>ATOM
   1 N1            -0.0638     2.9000     0.8060 N.2     
   2 C2            -0.1440     1.8730    -0.0036 C.2     
   3 N3             1.1222     1.5281    -0.3360 N.2     
   4 C4             1.8949     2.3740     0.2977 C.2     
   5 O5             1.0982     3.1971     0.9868 O.3     
   6 C6            -1.3835     1.2144    -0.4660 C.2     
   7 C7            -2.6551     1.5680    -0.1260 C.2     
   8 C8            -3.5244     0.6852    -0.7846 C.2     
   9 C9            -2.7693    -0.1758    -1.5023 C.2     
  10 N10           -1.4588     0.1420    -1.3188 N.pl3   
  11 C11            3.9548     2.2158     1.6727 C.3     
  12 C12            3.4009     2.4124     0.2580 C.3     
  13 C13            3.8633     3.7673    -0.2829 C.3     
  14 C14            5.3918     3.7952    -0.3544 C.3     
  15 C15            5.9683     3.6143     1.0533 C.3     
  16 N16            5.4138     2.3852     1.6370 N.am    
  17 C17            6.2282     1.4311     2.1300 C.2     
  18 C18            7.6887     1.5575     1.9769 C.2     
  19 O19            5.7580     0.4660     2.7012 O.2     
  20 C20           -5.0292     0.6950    -0.7054 C.3     
  21 C21            8.4534     1.9818     0.7940 C.2     
  22 N22            9.7014     1.9301     1.1548 N.2     
  23 O23            9.8329     1.5658     2.2976 O.3     
  24 C24            8.6713     1.3139     2.9052 C.2     
  25 C25            8.4772     0.8447     4.3241 C.3     
  26 H26           -2.9407     2.3776     0.5293 H       
  27 H27           -3.1432    -0.9788    -2.1202 H       
  28 H28           -0.7037    -0.3167    -1.7193 H       
  29 H29            3.5173     2.9560     2.3425 H       
  30 H30            3.7119     1.2130     2.0242 H       
  31 H31            3.7686     1.6171    -0.3904 H       
  32 H32            3.4503     3.9204    -1.2799 H       
  33 H33            3.5162     4.5603     0.3795 H       
  34 H34            5.7407     2.9869    -0.9971 H       
  35 H35            5.7195     4.7517    -0.7616 H       
  36 H36            7.0538     3.5343     0.9962 H       
  37 H37            5.6949     4.4686     1.6727 H       
  38 H38           -5.4303     1.3353    -1.4911 H       
  39 H39           -5.4065    -0.3194    -0.8354 H       
  40 H40           -5.3394     1.0761     0.2676 H       
  41 H41            8.0616     2.2741    -0.1690 H       
  42 H42            9.4485     0.7339     4.8063 H       
  43 H43            7.8817     1.5762     4.8704 H       
  44 H44            7.9610    -0.1153     4.3220 H       
@<TRIPOS>BOND
   1    1    2 2
   2    1    5 1
   3    2    3 1
   4    2    6 1
   5    3    4 2
   6    4    5 1
   7    4   12 1
   8    6    7 2
   9    6   10 1
  10    7    8 1
  11    7   26 1
  12    8    9 2
  13    8   20 1
  14    9   10 1
  15    9   27 1
  16   10   28 1
  17   11   12 1
  18   11   16 1
  19   11   29 1
  20   11   30 1
  21   12   13 1
  22   12   31 1
  23   13   14 1
  24   13   32 1
  25   13   33 1
  26   14   15 1
  27   14   34 1
  28   14   35 1
  29   15   16 1
  30   15   36 1
  31   15   37 1
  32   16   17 am
  33   17   18 1
  34   17   19 2
  35   18   21 1
  36   18   24 2
  37   20   38 1
  38   20   39 1
  39   20   40 1
  40   21   22 2
  41   21   41 1
  42   22   23 1
  43   23   24 1
  44   24   25 1
  45   25   42 1
  46   25   43 1
  47   25   44 1

#	End of record

