#	Name: ASD01815842
#	Creating user name:	WinNT
#	Creation time:	15. 06. 2019 19:34

#	Modifying user name:	WinNT
#	Modification time:	15. 06. 2019 19:34

#	Program:	/corina/corina34_cracker 3.40 0067  02.08.2006

@<TRIPOS>MOLECULE
ASD01815842
  63   68    0    0    0
SMALL
NO_CHARGES


@<TRIPOS>ATOM
   1 C1            -0.0195     1.3844    -0.0136 C.ar    
   2 C2             0.0003    -0.0066    -0.0212 C.ar    
   3 C3             1.1789    -0.6914    -0.0286 C.ar    
   4 C4             2.3931     0.0121    -0.0286 C.ar    
   5 C5             2.3690     1.4281    -0.0210 C.ar    
   6 C6             1.1423     2.0997    -0.0135 C.ar    
   7 C7             3.6282    -0.6694    -0.0366 C.ar    
   8 C8             4.8016     0.0072    -0.0372 C.ar    
   9 C9             4.8333     1.4103    -0.0298 C.ar    
  10 C10            3.6374     2.1511    -0.0211 C.ar    
  11 C11            6.0995     2.1543    -0.0314 C.2     
  12 N12            6.0288     3.5057    -0.0247 N.am    
  13 C13            4.8256     4.1321    -0.0166 C.2     
  14 N14            3.6920     3.4935    -0.0155 N.2     
  15 C15            7.2609     4.2982    -0.0259 C.3     
  16 C16            7.2965     5.1883    -1.2721 C.3     
  17 C17            7.3012     5.1847     1.2226 C.3     
  18 C18            8.5523     6.0656     1.1733 C.3     
  19 O19            8.5380     6.8445    -0.0247 O.3     
  20 C20            8.5479     6.0690    -1.2250 C.3     
  21 O21            7.1720     1.5772    -0.0379 O.2     
  22 C22            3.6424    -2.1763    -0.0442 C.3     
  23 C23            3.5367    -2.6867     1.3698 C.2     
  24 N24            2.4192    -2.8713     2.0467 N.2     
  25 O25            7.3416     4.3627     2.3908 O.3     
  26 C26            2.6975    -3.3298     3.2593 C.2     
  27 N27            4.0572    -3.4521     3.3855 N.pl3   
  28 C28            4.6023    -3.0530     2.1913 C.2     
  29 C29            4.8620    -3.8683     4.4016 C.2     
  30 C30            6.2055    -3.8883     4.2514 C.2     
  31 C31            6.7906    -3.4799     3.0435 C.2     
  32 C32            5.9949    -3.0684     2.0154 C.2     
  33 C33            1.7445    -3.6418     4.2621 C.2     
  34 O34            0.4274    -3.4778     4.0160 O.3     
  35 O35            2.1141    -4.0574     5.3445 O.2     
  36 C36           -0.4763    -3.8118     5.0713 C.3     
  37 C37           -1.9136    -3.5625     4.6100 C.3     
  38 H38           -0.9661     1.9044    -0.0124 H       
  39 H39           -0.9318    -0.5520    -0.0208 H       
  40 H40            1.1782    -1.7714    -0.0340 H       
  41 H41            1.1148     3.1794    -0.0080 H       
  42 H42            5.7306    -0.5436    -0.0430 H       
  43 H43            4.8078     5.2119    -0.0107 H       
  44 H44            8.1233     3.6315    -0.0293 H       
  45 H45            7.3240     4.5638    -2.1650 H       
  46 H46            6.4078     5.8190    -1.2947 H       
  47 H47            6.4126     5.8153     1.2503 H       
  48 H48            8.5641     6.7290     2.0381 H       
  49 H49            9.4415     5.4352     1.1864 H       
  50 H50            9.4369     5.4386    -1.2432 H       
  51 H51            8.5564     6.7349    -2.0879 H       
  52 H52            2.7985    -2.5446    -0.6275 H       
  53 H53            4.5730    -2.5286    -0.4891 H       
  54 H54            7.3685     4.8591     3.2203 H       
  55 H55            4.4233    -4.1851     5.3362 H       
  56 H56            6.8319    -4.2202     5.0662 H       
  57 H57            7.8642    -3.4970     2.9266 H       
  58 H58            6.4312    -2.7515     1.0796 H       
  59 H59           -0.3560    -4.8629     5.3336 H       
  60 H60           -0.2619    -3.1930     5.9427 H       
  61 H61           -2.0339    -2.5114     4.3477 H       
  62 H62           -2.1280    -4.1813     3.7386 H       
  63 H63           -2.6030    -3.8173     5.4150 H       
@<TRIPOS>BOND
   1    1    2 ar
   2    1    6 ar
   3    1   38 1
   4    2    3 ar
   5    2   39 1
   6    3    4 ar
   7    3   40 1
   8    4    5 ar
   9    4    7 ar
  10    5    6 ar
  11    5   10 ar
  12    6   41 1
  13    7    8 ar
  14    7   22 1
  15    8    9 ar
  16    8   42 1
  17    9   10 ar
  18    9   11 1
  19   10   14 1
  20   11   12 am
  21   11   21 2
  22   12   13 1
  23   12   15 1
  24   13   14 2
  25   13   43 1
  26   15   16 1
  27   15   17 1
  28   15   44 1
  29   16   20 1
  30   16   45 1
  31   16   46 1
  32   17   18 1
  33   17   25 1
  34   17   47 1
  35   18   19 1
  36   18   48 1
  37   18   49 1
  38   19   20 1
  39   20   50 1
  40   20   51 1
  41   22   23 1
  42   22   52 1
  43   22   53 1
  44   23   24 1
  45   23   28 2
  46   24   26 2
  47   25   54 1
  48   26   27 1
  49   26   33 1
  50   27   28 1
  51   27   29 1
  52   28   32 1
  53   29   30 2
  54   29   55 1
  55   30   31 1
  56   30   56 1
  57   31   32 2
  58   31   57 1
  59   32   58 1
  60   33   34 1
  61   33   35 2
  62   34   36 1
  63   36   37 1
  64   36   59 1
  65   36   60 1
  66   37   61 1
  67   37   62 1
  68   37   63 1

#	End of record

