#	Name: ASD04880166
#	Creating user name:	WinNT
#	Creation time:	15. 06. 2019 20:52

#	Modifying user name:	WinNT
#	Modification time:	15. 06. 2019 20:52

#	Program:	/corina/corina34_cracker 3.40 0067  02.08.2006

@<TRIPOS>MOLECULE
ASD04880166
  41   43    0    0    0
SMALL
NO_CHARGES


@<TRIPOS>ATOM
   1 C1            -0.0144     1.2118     0.0087 C.2     
   2 O2             0.0583    -0.0018    -0.0139 O.2     
   3 C3             1.2183     2.0266    -0.0193 C.ar    
   4 C4             2.4679     1.4109     0.0723 C.ar    
   5 C5             3.6145     2.1773     0.0451 C.ar    
   6 C6             3.5281     3.5532    -0.0728 C.ar    
   7 C7             2.2928     4.1698    -0.1637 C.ar    
   8 C8             1.1384     3.4148    -0.1434 C.ar    
   9 N9            -1.2193     1.8139     0.0537 N.am    
  10 N10           -1.4364     3.1830     0.1952 N.2     
  11 C11           -2.6801     3.5199     0.2116 C.2     
  12 C12           -3.5398     2.2845     0.0676 C.3     
  13 C13           -2.5204     1.1336    -0.0448 C.3     
  14 C14           -3.1866     4.8973     0.3500 C.ar    
  15 C15           -2.2919     5.9632     0.4765 C.ar    
  16 C16           -2.7723     7.2528     0.6055 C.ar    
  17 C17           -4.1455     7.4878     0.6091 C.ar    
  18 C18           -5.0341     6.4298     0.4834 C.ar    
  19 C19           -4.5624     5.1411     0.3490 C.ar    
  20 O20           -4.6158     8.7568     0.7364 O.3     
  21 C21           -6.0348     8.9262     0.7323 C.3     
  22 O22           -1.9043     8.2925     0.7293 O.3     
  23 C23           -0.5102     7.9786     0.7182 C.3     
  24 H24            2.5367     0.3371     0.1647 H       
  25 H25            4.5819     1.7024     0.1162 H       
  26 H26            4.4289     4.1486    -0.0937 H       
  27 H27            2.2323     5.2443    -0.2548 H       
  28 H28            0.1750     3.8969    -0.2189 H       
  29 H29           -4.1731     2.1549     0.9453 H       
  30 H30           -4.1455     2.3435    -0.8367 H       
  31 H31           -2.6162     0.6262    -1.0048 H       
  32 H32           -2.6481     0.4290     0.7770 H       
  33 H33           -1.2276     5.7797     0.4740 H       
  34 H34           -6.0979     6.6165     0.4867 H       
  35 H35           -5.2564     4.3198     0.2473 H       
  36 H36           -6.4422     8.5559    -0.2084 H       
  37 H37           -6.4697     8.3680     1.5614 H       
  38 H38           -6.2747     9.9839     0.8409 H       
  39 H39            0.0695     8.8955     0.8245 H       
  40 H40           -0.2825     7.3067     1.5457 H       
  41 H41           -0.2544     7.4941    -0.2241 H       
@<TRIPOS>BOND
   1    1    2 2
   2    1    3 1
   3    1    9 am
   4    3    4 ar
   5    3    8 ar
   6    4    5 ar
   7    4   24 1
   8    5    6 ar
   9    5   25 1
  10    6    7 ar
  11    6   26 1
  12    7    8 ar
  13    7   27 1
  14    8   28 1
  15    9   10 1
  16    9   13 1
  17   10   11 2
  18   11   12 1
  19   11   14 1
  20   12   13 1
  21   12   29 1
  22   12   30 1
  23   13   31 1
  24   13   32 1
  25   14   15 ar
  26   14   19 ar
  27   15   16 ar
  28   15   33 1
  29   16   17 ar
  30   16   22 1
  31   17   18 ar
  32   17   20 1
  33   18   19 ar
  34   18   34 1
  35   19   35 1
  36   20   21 1
  37   21   36 1
  38   21   37 1
  39   21   38 1
  40   22   23 1
  41   23   39 1
  42   23   40 1
  43   23   41 1

#	End of record

