#	Name: ASD01910249
#	Creating user name:	WinNT
#	Creation time:	15. 06. 2019 19:55

#	Modifying user name:	WinNT
#	Modification time:	15. 06. 2019 19:55

#	Program:	/corina/corina34_cracker 3.40 0067  02.08.2006

@<TRIPOS>MOLECULE
ASD01910249
  43   46    0    0    0
SMALL
NO_CHARGES


@<TRIPOS>ATOM
   1 C1             2.7127     0.1190    -0.3459 C.2     
   2 C2             3.2351     1.5185    -0.1470 C.3     
   3 C3             3.1671     2.2822    -1.4715 C.3     
   4 C4             3.7278     3.6930    -1.2782 C.3     
   5 C5             2.8771     4.4392    -0.2456 C.3     
   6 N6             2.8182     3.6394     0.9855 N.am    
   7 C7             2.3788     2.2401     0.8984 C.3     
   8 C8             3.1608     4.1790     2.1720 C.2     
   9 C9             2.9799     3.4092     3.4074 C.2     
  10 O10            3.6201     5.3049     2.2184 O.2     
  11 N11            3.3744    -0.9938    -0.1477 N.2     
  12 C12            2.5106    -1.9890    -0.4512 C.2     
  13 N13            1.3861    -1.4273    -0.8124 N.2     
  14 O14            1.4852    -0.2200    -0.7523 O.3     
  15 C15            2.7871    -3.4454    -0.3872 C.ar    
  16 C16            1.7945    -4.3609    -0.7317 C.ar    
  17 C17            2.0559    -5.7141    -0.6713 C.ar    
  18 C18            3.3033    -6.1635    -0.2688 C.ar    
  19 C19            4.2932    -5.2566     0.0747 C.ar    
  20 C20            4.0419    -3.9016     0.0120 C.ar    
  21 F21            3.5551    -7.4895    -0.2106 F       
  22 C22            3.8469     3.3536     4.4494 C.2     
  23 N23            3.4498     2.5918     5.4377 N.2     
  24 C24            2.3076     1.9970     5.3085 C.2     
  25 S25            1.5941     2.3970     3.8074 S.3     
  26 C26            5.1538     4.1036     4.4679 C.3     
  27 H27            4.2690     1.4757     0.1956 H       
  28 H28            3.7558     1.7574    -2.2239 H       
  29 H29            2.1301     2.3456    -1.8013 H       
  30 H30            4.7570     3.6302    -0.9247 H       
  31 H31            3.7006     4.2284    -2.2273 H       
  32 H32            3.3291     5.4076    -0.0310 H       
  33 H33            1.8699     4.5825    -0.6368 H       
  34 H34            1.3309     2.2040     0.6005 H       
  35 H35            2.5021     1.7574     1.8680 H       
  36 H36            0.8218    -4.0115    -1.0452 H       
  37 H37            1.2871    -6.4242    -0.9378 H       
  38 H38            5.2641    -5.6111     0.3879 H       
  39 H39            4.8139    -3.1955     0.2798 H       
  40 H40            1.8659     1.3437     6.0464 H       
  41 H41            5.0004     5.0902     4.9052 H       
  42 H42            5.8812     3.5515     5.0631 H       
  43 H43            5.5252     4.2117     3.4488 H       
@<TRIPOS>BOND
   1    1   11 2
   2    1    2 1
   3    1   14 1
   4    2    3 1
   5    2    7 1
   6    2   27 1
   7    3    4 1
   8    3   28 1
   9    3   29 1
  10    4    5 1
  11    4   30 1
  12    4   31 1
  13    5    6 1
  14    5   32 1
  15    5   33 1
  16    6    7 1
  17    6    8 am
  18    7   34 1
  19    7   35 1
  20    8    9 1
  21    8   10 2
  22    9   22 2
  23    9   25 1
  24   11   12 1
  25   12   13 2
  26   12   15 1
  27   13   14 1
  28   15   16 ar
  29   15   20 ar
  30   16   17 ar
  31   16   36 1
  32   17   18 ar
  33   17   37 1
  34   18   19 ar
  35   18   21 1
  36   19   20 ar
  37   19   38 1
  38   20   39 1
  39   22   23 1
  40   22   26 1
  41   23   24 2
  42   24   25 1
  43   24   40 1
  44   26   41 1
  45   26   42 1
  46   26   43 1

#	End of record

