#	Name: ASD05062030
#	Creating user name:	WinNT
#	Creation time:	15. 06. 2019 20:56

#	Modifying user name:	WinNT
#	Modification time:	15. 06. 2019 20:56

#	Program:	/corina/corina34_cracker 3.40 0067  02.08.2006

@<TRIPOS>MOLECULE
ASD05062030
  27   29    0    0    0
SMALL
NO_CHARGES


@<TRIPOS>ATOM
   1 N1             0.0087     0.0167    -0.1961 N.2     
   2 C2            -0.0222     1.2751     0.1761 C.2     
   3 C3             1.2958     1.7301     0.3099 C.2     
   4 C4             2.1288     0.6922     0.0025 C.2     
   5 N5             1.3472    -0.3788    -0.3138 N.pl3   
   6 N6            -1.1769     2.0341     0.4007 N.pl3   
   7 C7             3.6079     0.7245     0.0109 C.ar    
   8 C8             4.2809     1.9430    -0.0784 C.ar    
   9 C9             5.6611     1.9714    -0.0700 C.ar    
  10 C10            6.3827     0.7904     0.0270 C.ar    
  11 C11            5.7151    -0.4302     0.1166 C.ar    
  12 C12            4.3327    -0.4634     0.1139 C.ar    
  13 O13            7.7272     0.5542     0.0551 O.3     
  14 C14            7.8725    -0.7810     0.5738 C.3     
  15 O15            6.6421    -1.4290     0.2007 O.3     
  16 Br16           6.5708     3.6248    -0.1918 Br      
  17 C17            1.8227    -1.7077    -0.7062 C.3     
  18 H18            1.5993     2.7242     0.6034 H       
  19 H19           -2.0519     1.6325     0.2824 H       
  20 H20           -1.1020     2.9616     0.6746 H       
  21 H21            3.7222     2.8642    -0.1545 H       
  22 H22            3.8146    -1.4085     0.1832 H       
  23 H23            8.7239    -1.2807     0.1119 H       
  24 H24            7.9811    -0.7608     1.6582 H       
  25 H25            2.0378    -2.2950     0.1865 H       
  26 H26            1.0544    -2.2093    -1.2947 H       
  27 H27            2.7296    -1.6077    -1.3025 H       
@<TRIPOS>BOND
   1    1    2 2
   2    1    5 1
   3    2    3 1
   4    2    6 1
   5    3    4 2
   6    3   18 1
   7    4    5 1
   8    4    7 1
   9    5   17 1
  10    6   19 1
  11    6   20 1
  12    7    8 ar
  13    7   12 ar
  14    8    9 ar
  15    8   21 1
  16    9   10 ar
  17    9   16 1
  18   10   11 ar
  19   10   13 1
  20   11   12 ar
  21   11   15 1
  22   12   22 1
  23   13   14 1
  24   14   15 1
  25   14   23 1
  26   14   24 1
  27   17   25 1
  28   17   26 1
  29   17   27 1

#	End of record

