#	Name: ASD03330387
#	Creating user name:	WinNT
#	Creation time:	15. 06. 2019 20:37

#	Modifying user name:	WinNT
#	Modification time:	15. 06. 2019 20:37

#	Program:	/corina/corina34_cracker 3.40 0067  02.08.2006

@<TRIPOS>MOLECULE
ASD03330387
  52   55    0    0    0
SMALL
NO_CHARGES


@<TRIPOS>ATOM
   1 C1            -0.1750     1.6150    -0.2749 C.3     
   2 N2            -0.2098     0.1446    -0.2864 N.am    
   3 C3             0.4410    -0.5548    -1.4107 C.3     
   4 C4             1.7554     0.1431    -1.6611 C.2     
   5 N5             2.1083     1.3255    -1.0969 N.pl3   
   6 C6             1.2789     2.0862    -0.1593 C.3     
   7 C7             2.7830    -0.2518    -2.4550 C.2     
   8 N8             3.7482     0.6918    -2.3746 N.2     
   9 C9             3.3489     1.6432    -1.5621 C.2     
  10 C10            4.1176     2.8577    -1.2112 C.ar    
  11 C11            5.2239     3.2314    -1.9746 C.ar    
  12 C12            2.8373    -1.4859    -3.2586 C.2     
  13 O13            1.9001    -2.2608    -3.2470 O.2     
  14 N14            4.0203    -2.9460    -4.6700 N.3     
  15 N15            3.9257    -1.7558    -4.0064 N.am    
  16 C16           -0.8174    -0.5431     0.7006 C.2     
  17 O17           -1.2602     0.0439     1.6651 O.2     
  18 C18            5.9363     4.3654    -1.6425 C.ar    
  19 C19            5.5556     5.1312    -0.5550 C.ar    
  20 C20            4.4596     4.7659     0.2060 C.ar    
  21 C21            3.7357     3.6371    -0.1189 C.ar    
  22 C22            5.2641    -3.6449    -4.3223 C.3     
  23 C23           -0.9468    -2.0415     0.6057 C.3     
  24 C24            5.2685    -5.0326    -4.9676 C.3     
  25 C25            5.1523    -4.8839    -6.4871 C.3     
  26 C26            3.8734    -4.1106    -6.8201 C.3     
  27 C27            3.9094    -2.7496    -6.1211 C.3     
  28 H28           -0.6088     1.9965    -1.1992 H       
  29 H29           -0.7464     1.9858     0.5760 H       
  30 H30            0.6177    -1.5978    -1.1479 H       
  31 H31           -0.1871    -0.4953    -2.2996 H       
  32 H32            1.3378     3.1478    -0.3998 H       
  33 H33            1.6351     1.9222     0.8577 H       
  34 H34            5.5222     2.6342    -2.8236 H       
  35 H35            4.6417    -1.1049    -4.0733 H       
  36 H36            6.7931     4.6556    -2.2325 H       
  37 H37            6.1167     6.0177    -0.2988 H       
  38 H38            4.1674     5.3679     1.0538 H       
  39 H39            2.8803     3.3529     0.4759 H       
  40 H40            6.1167    -3.0721    -4.6870 H       
  41 H41            5.3323    -3.7478    -3.2393 H       
  42 H42           -0.4232    -2.3960    -0.2821 H       
  43 H43           -0.5102    -2.5008     1.4926 H       
  44 H44           -2.0006    -2.3117     0.5381 H       
  45 H45            6.1986    -5.5451    -4.7221 H       
  46 H46            4.4239    -5.6108    -4.5929 H       
  47 H47            6.0167    -4.3393    -6.8669 H       
  48 H48            5.1114    -5.8710    -6.9476 H       
  49 H49            3.8068    -3.9643    -7.8981 H       
  50 H50            3.0068    -4.6743    -6.4745 H       
  51 H51            2.9938    -2.2022    -6.3446 H       
  52 H52            4.7684    -2.1810    -6.4773 H       
@<TRIPOS>BOND
   1    1    2 1
   2    1    6 1
   3    1   28 1
   4    1   29 1
   5    2    3 1
   6    2   16 am
   7    3    4 1
   8    3   30 1
   9    3   31 1
  10    4    5 1
  11    4    7 2
  12    5    6 1
  13    5    9 1
  14    6   32 1
  15    6   33 1
  16    7    8 1
  17    7   12 1
  18    8    9 2
  19    9   10 1
  20   10   11 ar
  21   10   21 ar
  22   11   18 ar
  23   11   34 1
  24   12   13 2
  25   12   15 am
  26   14   22 1
  27   14   15 1
  28   14   27 1
  29   15   35 1
  30   16   17 2
  31   16   23 1
  32   18   19 ar
  33   18   36 1
  34   19   20 ar
  35   19   37 1
  36   20   21 ar
  37   20   38 1
  38   21   39 1
  39   22   24 1
  40   22   40 1
  41   22   41 1
  42   23   42 1
  43   23   43 1
  44   23   44 1
  45   24   25 1
  46   24   45 1
  47   24   46 1
  48   25   26 1
  49   25   47 1
  50   25   48 1
  51   26   27 1
  52   26   49 1
  53   26   50 1
  54   27   51 1
  55   27   52 1

#	End of record

