#	Name: ASD01148769
#	Creating user name:	WinNT
#	Creation time:	15. 06. 2019 19:03

#	Modifying user name:	WinNT
#	Modification time:	15. 06. 2019 19:03

#	Program:	/corina/corina34_cracker 3.40 0067  02.08.2006

@<TRIPOS>MOLECULE
ASD01148769
  51   53    0    0    0
SMALL
NO_CHARGES


@<TRIPOS>ATOM
   1 N1            -0.0155     1.3412     0.0827 N.pl3   
   2 C2             0.0021     0.0054    -0.1104 C.2     
   3 C3             1.3176    -0.4067    -0.1563 C.2     
   4 C4             2.1209     0.7507     0.0195 C.2     
   5 C5             1.2771     1.8041     0.1631 C.2     
   6 C6             1.7972    -1.7843    -0.3498 C.2     
   7 O7             1.0002    -2.6914    -0.4887 O.2     
   8 O8             3.1203    -2.0402    -0.3731 O.3     
   9 C9            -1.2073    -0.8828    -0.2508 C.3     
  10 C10           -1.1681     2.1319     0.1797 C.ar    
  11 C11           -2.0096     2.0035     1.2769 C.ar    
  12 C12           -3.1447     2.7845     1.3700 C.ar    
  13 C13           -3.4437     3.6940     0.3718 C.ar    
  14 C14           -2.6081     3.8238    -0.7220 C.ar    
  15 C15           -1.4682     3.0494    -0.8180 C.ar    
  16 S16           -4.2133     2.6219     2.7614 S.o2    
  17 O17           -5.4833     3.0381     2.2785 O.2     
  18 O18           -4.0012     1.2912     3.2126 O.2     
  19 C19           -3.5695     3.8134     3.9683 C.3     
  20 C20           -4.4239     3.7668     5.2366 C.3     
  21 C21            1.6796     3.2120     0.3703 C.ar    
  22 C22            0.7823     4.1219     0.9310 C.ar    
  23 C23            1.1634     5.4339     1.1218 C.ar    
  24 C24            2.4334     5.8486     0.7581 C.ar    
  25 C25            3.3279     4.9505     0.2008 C.ar    
  26 C26            2.9602     3.6346     0.0110 C.ar    
  27 Cl27           2.9059     7.5013     1.0012 Cl      
  28 C28            3.5212    -3.4221    -0.5681 C.3     
  29 C29            5.0483    -3.5153    -0.5659 C.3     
  30 H30            3.2002     0.7862     0.0360 H       
  31 H31           -1.4888    -0.9498    -1.3016 H       
  32 H32           -0.9728    -1.8781     0.1268 H       
  33 H33           -2.0348    -0.4629     0.3211 H       
  34 H34           -1.7768     1.2932     2.0565 H       
  35 H35           -4.3319     4.3037     0.4468 H       
  36 H36           -2.8445     4.5346    -1.5000 H       
  37 H37           -0.8136     3.1544    -1.6705 H       
  38 H38           -2.5386     3.5596     4.2150 H       
  39 H39           -3.6049     4.8164     3.5430 H       
  40 H40           -4.0370     4.4828     5.9618 H       
  41 H41           -5.4548     4.0206     4.9899 H       
  42 H42           -4.3885     2.7638     5.6619 H       
  43 H43           -0.2087     3.7996     1.2148 H       
  44 H44            0.4697     6.1390     1.5554 H       
  45 H45            4.3170     5.2798    -0.0813 H       
  46 H46            3.6603     2.9338    -0.4193 H       
  47 H47            3.1186    -4.0344     0.2388 H       
  48 H48            3.1366    -3.7806    -1.5229 H       
  49 H49            5.3492    -4.5527    -0.7123 H       
  50 H50            5.4509    -2.9029    -1.3727 H       
  51 H51            5.4328    -3.1567     0.3889 H       
@<TRIPOS>BOND
   1    1    2 1
   2    1    5 1
   3    1   10 1
   4    2    3 2
   5    2    9 1
   6    3    4 1
   7    3    6 1
   8    4    5 2
   9    4   30 1
  10    5   21 1
  11    6    7 2
  12    6    8 1
  13    8   28 1
  14    9   31 1
  15    9   32 1
  16    9   33 1
  17   10   11 ar
  18   10   15 ar
  19   11   12 ar
  20   11   34 1
  21   12   13 ar
  22   12   16 1
  23   13   14 ar
  24   13   35 1
  25   14   15 ar
  26   14   36 1
  27   15   37 1
  28   16   17 2
  29   16   18 2
  30   16   19 1
  31   19   20 1
  32   19   38 1
  33   19   39 1
  34   20   40 1
  35   20   41 1
  36   20   42 1
  37   21   22 ar
  38   21   26 ar
  39   22   23 ar
  40   22   43 1
  41   23   24 ar
  42   23   44 1
  43   24   25 ar
  44   24   27 1
  45   25   26 ar
  46   25   45 1
  47   26   46 1
  48   28   29 1
  49   28   47 1
  50   28   48 1
  51   29   49 1
  52   29   50 1
  53   29   51 1

#	End of record

