#	Name: ASD07931731
#	Creating user name:	WinNT
#	Creation time:	15. 06. 2019 21:13

#	Modifying user name:	WinNT
#	Modification time:	15. 06. 2019 21:13

#	Program:	/corina/corina34_cracker 3.40 0067  02.08.2006

@<TRIPOS>MOLECULE
ASD07931731
  61   65    0    0    0
SMALL
NO_CHARGES


@<TRIPOS>ATOM
   1 C1             1.9431    -2.0972    -1.0488 C.2     
   2 C2             0.8462    -1.3010    -1.2341 C.2     
   3 C3             1.0344     0.1482    -1.3366 C.2     
   4 N4             2.2750     0.6586    -1.2485 N.am    
   5 C5             3.3628    -0.1636    -1.0599 C.2     
   6 C6             3.2126    -1.5126    -0.9617 C.2     
   7 C7             2.4999     2.1067    -1.3534 C.3     
   8 C8             3.5673     2.4986    -0.3208 C.3     
   9 N9             4.8000     1.7558    -0.6193 N.am    
  10 C10            4.7062     0.4493    -0.9639 C.2     
  11 C11            6.1057     2.4163    -0.5455 C.3     
  12 O12            0.0760     0.8838    -1.5005 O.2     
  13 N13           -0.4315    -1.8603    -1.3243 N.pl3   
  14 C14           -1.1012    -2.5283    -0.3314 C.2     
  15 C15           -1.2476    -1.8399    -2.4109 C.2     
  16 N16           -2.3543    -2.4631    -2.1109 N.2     
  17 C17           -2.2915    -2.8955    -0.8426 C.2     
  18 C18           -3.3674    -3.6601    -0.1154 C.3     
  19 O19            5.7050    -0.2064    -1.1893 O.2     
  20 C20            6.3910     2.8218     0.9019 C.3     
  21 C21            6.2680     1.5986     1.8373 C.3     
  22 C22            5.6319     2.1720     3.1234 C.3     
  23 C23            5.4458     3.6737     2.8128 C.3     
  24 O24            5.3873     3.7480     1.3717 O.3     
  25 C25            4.1609     4.1791     3.4167 C.ar    
  26 C26            4.1292     4.5808     4.7442 C.ar    
  27 C27            3.0158     4.2476     2.6469 C.ar    
  28 C28            1.8351     4.7122     3.2007 C.ar    
  29 C29            1.8003     5.1093     4.5276 C.ar    
  30 C30            2.9463     5.0461     5.2986 C.ar    
  31 C31            6.0974     3.6630    -1.4323 C.3     
  32 O32            5.2567     4.5180     5.5010 O.3     
  33 C33            5.1509     4.9479     6.8597 C.3     
  34 Cl34           0.3191     5.6922     5.2205 Cl      
  35 F35            0.7161     4.7787     2.4466 F       
  36 H36            1.8303    -3.1681    -0.9660 H       
  37 H37            4.0807    -2.1382    -0.8149 H       
  38 H38            2.8492     2.3534    -2.3560 H       
  39 H39            1.5722     2.6395    -1.1444 H       
  40 H40            3.7609     3.5695    -0.3827 H       
  41 H41            3.2195     2.2436     0.6802 H       
  42 H42            6.8797     1.7305    -0.8900 H       
  43 H43           -0.7426    -2.7226     0.6687 H       
  44 H44           -1.0188    -1.3840    -3.3628 H       
  45 H45           -3.2158    -4.7294    -0.2624 H       
  46 H46           -3.3209    -3.4295     0.9489 H       
  47 H47           -4.3438    -3.3744    -0.5067 H       
  48 H48            7.3844     3.2630     0.9828 H       
  49 H49            5.6192     0.8429     1.3945 H       
  50 H50            7.2518     1.1810     2.0513 H       
  51 H51            4.6686     1.6997     3.3164 H       
  52 H52            6.3012     2.0378     3.9731 H       
  53 H53            6.2936     4.2468     3.1882 H       
  54 H54            3.0418     3.9390     1.6123 H       
  55 H55            2.9193     5.3553     6.3331 H       
  56 H56            7.0688     4.1544    -1.3774 H       
  57 H57            5.8941     3.3741    -2.4635 H       
  58 H58            5.3233     4.3488    -1.0879 H       
  59 H59            6.1194     4.8464     7.3494 H       
  60 H60            4.8374     5.9915     6.8872 H       
  61 H61            4.4151     4.3337     7.3788 H       
@<TRIPOS>BOND
   1    1    2 2
   2    1    6 1
   3    1   36 1
   4    2    3 1
   5    2   13 1
   6    3    4 am
   7    3   12 2
   8    4    5 1
   9    4    7 1
  10    5    6 2
  11    5   10 1
  12    6   37 1
  13    7    8 1
  14    7   38 1
  15    7   39 1
  16    8    9 1
  17    8   40 1
  18    8   41 1
  19    9   10 am
  20    9   11 1
  21   10   19 2
  22   11   31 1
  23   11   20 1
  24   11   42 1
  25   13   14 1
  26   13   15 1
  27   14   17 2
  28   14   43 1
  29   15   16 2
  30   15   44 1
  31   16   17 1
  32   17   18 1
  33   18   45 1
  34   18   46 1
  35   18   47 1
  36   20   21 1
  37   20   24 1
  38   20   48 1
  39   21   22 1
  40   21   49 1
  41   21   50 1
  42   22   23 1
  43   22   51 1
  44   22   52 1
  45   23   24 1
  46   23   25 1
  47   23   53 1
  48   25   26 ar
  49   25   27 ar
  50   26   32 1
  51   26   30 ar
  52   27   28 ar
  53   27   54 1
  54   28   29 ar
  55   28   35 1
  56   29   30 ar
  57   29   34 1
  58   30   55 1
  59   31   56 1
  60   31   57 1
  61   31   58 1
  62   32   33 1
  63   33   59 1
  64   33   60 1
  65   33   61 1

#	End of record

