#	Name: ASD02560334
#	Creating user name:	WinNT
#	Creation time:	15. 06. 2019 20:25

#	Modifying user name:	WinNT
#	Modification time:	15. 06. 2019 20:25

#	Program:	/corina/corina34_cracker 3.40 0067  02.08.2006

@<TRIPOS>MOLECULE
ASD02560334
  43   45    0    0    0
SMALL
NO_CHARGES


@<TRIPOS>ATOM
   1 C1             0.1358     1.3887     1.1078 C.2     
   2 C2             0.1567    -0.0175     1.0945 C.2     
   3 C3             1.2852    -0.6792     0.7691 C.2     
   4 N4             2.4254     0.0056     0.4475 N.pl3   
   5 C5             2.4347     1.3816     0.4516 C.2     
   6 C6             1.2601     2.0841     0.7903 C.2     
   7 C7             3.6808    -0.4021     0.0869 C.2     
   8 C8             4.4200     0.7171    -0.1187 C.2     
   9 N9             3.6472     1.7856     0.1072 N.2     
  10 C10            5.8688     0.7508    -0.5320 C.3     
  11 N11            4.1201    -1.7252    -0.0446 N.3     
  12 C12            2.9997    -2.6669     0.0813 C.3     
  13 C13            3.3441    -3.9692    -0.6442 C.3     
  14 C14            2.1772    -4.9500    -0.5130 C.3     
  15 C15            1.9210    -5.2429     0.9667 C.3     
  16 C16            1.5766    -3.9406     1.6922 C.3     
  17 C17            2.7435    -2.9598     1.5610 C.3     
  18 C18            5.9634     0.7687    -2.0589 C.3     
  19 S19            7.7074     0.8093    -2.5563 S.3     
  20 C20            7.6147     0.8264    -4.3679 C.3     
  21 H21           -0.7718     1.9145     1.3652 H       
  22 H22           -0.7362    -0.5702     1.3467 H       
  23 H23            1.2896    -1.7592     0.7626 H       
  24 H24            1.2534     3.1641     0.7972 H       
  25 H25            6.3411     1.6464    -0.1282 H       
  26 H26            6.3772    -0.1331    -0.1468 H       
  27 H27            4.6085    -1.8589    -0.9174 H       
  28 H28            2.1056    -2.2292    -0.3626 H       
  29 H29            3.5266    -3.7605    -1.6984 H       
  30 H30            4.2383    -4.4069    -0.2003 H       
  31 H31            1.2830    -4.5123    -0.9569 H       
  32 H32            2.4225    -5.8778    -1.0299 H       
  33 H33            1.0897    -5.9417     1.0601 H       
  34 H34            2.8152    -5.6806     1.4105 H       
  35 H35            0.6825    -3.5029     1.2483 H       
  36 H36            1.3941    -4.1493     2.7463 H       
  37 H37            3.6377    -3.3975     2.0048 H       
  38 H38            2.4982    -2.0320     2.0778 H       
  39 H39            5.4911    -0.1269    -2.4627 H       
  40 H40            5.4550     1.6526    -2.4441 H       
  41 H41            8.6223     0.8511    -4.7830 H       
  42 H42            7.1012    -0.0706    -4.7139 H       
  43 H43            7.0651     1.7089    -4.6953 H       
@<TRIPOS>BOND
   1    1    2 1
   2    1    6 2
   3    1   21 1
   4    2    3 2
   5    2   22 1
   6    3    4 1
   7    3   23 1
   8    4    5 1
   9    4    7 1
  10    5    6 1
  11    5    9 2
  12    6   24 1
  13    7    8 2
  14    7   11 1
  15    8    9 1
  16    8   10 1
  17   10   18 1
  18   10   25 1
  19   10   26 1
  20   11   12 1
  21   11   27 1
  22   12   13 1
  23   12   17 1
  24   12   28 1
  25   13   14 1
  26   13   29 1
  27   13   30 1
  28   14   15 1
  29   14   31 1
  30   14   32 1
  31   15   16 1
  32   15   33 1
  33   15   34 1
  34   16   17 1
  35   16   35 1
  36   16   36 1
  37   17   37 1
  38   17   38 1
  39   18   19 1
  40   18   39 1
  41   18   40 1
  42   19   20 1
  43   20   41 1
  44   20   42 1
  45   20   43 1

#	End of record

