#	Name: ASD04910318
#	Creating user name:	WinNT
#	Creation time:	15. 06. 2019 20:55

#	Modifying user name:	WinNT
#	Modification time:	15. 06. 2019 20:55

#	Program:	/corina/corina34_cracker 3.40 0067  02.08.2006

@<TRIPOS>MOLECULE
ASD04910318
  61   63    0    0    0
SMALL
NO_CHARGES


@<TRIPOS>ATOM
   1 C1             0.1219     1.2153    -0.2922 C.ar    
   2 C2             0.3267    -0.1526    -0.3275 C.ar    
   3 C3            -0.7272    -1.0045    -0.5858 C.ar    
   4 C4            -2.0023    -0.4836    -0.8114 C.ar    
   5 C5            -2.2022     0.8972    -0.7739 C.ar    
   6 C6            -1.1407     1.7378    -0.5093 C.ar    
   7 C7             1.2780     2.1399    -0.0099 C.3     
   8 O8             1.1202     3.3437    -0.7635 O.3     
   9 C9             2.2420     3.8784    -1.3146 C.ar    
  10 C10            1.3115     2.4734     1.4830 C.3     
  11 C11            3.4830     3.3235    -1.0375 C.ar    
  12 C12            2.1451     4.9753    -2.1584 C.ar    
  13 C13            3.2842     5.5181    -2.7191 C.ar    
  14 C14            4.5265     4.9665    -2.4379 C.ar    
  15 C15            4.6227     3.8663    -1.5970 C.ar    
  16 N16            5.6847     5.5180    -3.0076 N.pl3   
  17 C17            5.8807     5.8046    -4.3204 C.2     
  18 N18            7.0784     6.3039    -4.4627 N.2     
  19 C19            7.6834     6.3546    -3.2669 C.2     
  20 C20            6.8293     5.8744    -2.3429 C.2     
  21 C21           -3.1363    -1.3907    -1.0893 C.2     
  22 N22           -4.3664    -0.8846    -1.3067 N.am    
  23 O23           -2.9592    -2.5928    -1.1218 O.2     
  24 C24           -5.4901    -1.7834    -1.5822 C.3     
  25 C25           -6.7627    -0.9599    -1.7901 C.3     
  26 C26           -7.9185    -1.8844    -2.0734 C.2     
  27 O27           -7.7425    -3.0794    -2.1057 O.2     
  28 O28           -9.1436    -1.3804    -2.2900 O.3     
  29 C29            9.0759     6.8662    -3.0019 C.3     
  30 C30            2.5551     3.3097     1.7909 C.3     
  31 C31            2.5886     3.6433     3.2837 C.3     
  32 C32            7.0862     5.7448    -0.8637 C.3     
  33 H33            1.3139    -0.5543    -0.1528 H       
  34 H34           -0.5659    -2.0720    -0.6138 H       
  35 H35           -3.1864     1.3065    -0.9476 H       
  36 H36           -1.2940     2.8064    -0.4800 H       
  37 H37            2.2107     1.6528    -0.2943 H       
  38 H38            0.4184     3.0389     1.7490 H       
  39 H39            1.3424     1.5499     2.0610 H       
  40 H40            3.5577     2.4670    -0.3838 H       
  41 H41            1.1784     5.4045    -2.3772 H       
  42 H42            3.2085     6.3716    -3.3766 H       
  43 H43            5.5891     3.4367    -1.3780 H       
  44 H44            5.1655     5.6457    -5.1140 H       
  45 H45           -4.5077     0.0747    -1.2809 H       
  46 H46           -5.2805    -2.3619    -2.4819 H       
  47 H47           -5.6290    -2.4602    -0.7391 H       
  48 H48           -6.9722    -0.3814    -0.8904 H       
  49 H49           -6.6237    -0.2830    -2.6331 H       
  50 H50           -9.8534    -2.0127    -2.4676 H       
  51 H51            9.0360     7.9342    -2.7876 H       
  52 H52            9.4999     6.3397    -2.1468 H       
  53 H53            9.6991     6.6948    -3.8796 H       
  54 H54            3.4482     2.7443     1.5248 H       
  55 H55            2.5242     4.2333     1.2129 H       
  56 H56            1.6955     4.2087     3.5498 H       
  57 H57            2.6195     2.7197     3.8618 H       
  58 H58            3.4746     4.2391     3.5031 H       
  59 H59            6.7761     6.6600    -0.3595 H       
  60 H60            6.5185     4.9022    -0.4688 H       
  61 H61            8.1498     5.5783    -0.6928 H       
@<TRIPOS>BOND
   1    1    2 ar
   2    1    7 1
   3    1    6 ar
   4    2    3 ar
   5    2   33 1
   6    3    4 ar
   7    3   34 1
   8    4    5 ar
   9    4   21 1
  10    5    6 ar
  11    5   35 1
  12    6   36 1
  13    7    8 1
  14    7   10 1
  15    7   37 1
  16    8    9 1
  17    9   11 ar
  18    9   12 ar
  19   10   30 1
  20   10   38 1
  21   10   39 1
  22   11   15 ar
  23   11   40 1
  24   12   13 ar
  25   12   41 1
  26   13   14 ar
  27   13   42 1
  28   14   15 ar
  29   14   16 1
  30   15   43 1
  31   16   17 1
  32   16   20 1
  33   17   18 2
  34   17   44 1
  35   18   19 1
  36   19   20 2
  37   19   29 1
  38   20   32 1
  39   21   22 am
  40   21   23 2
  41   22   24 1
  42   22   45 1
  43   24   25 1
  44   24   46 1
  45   24   47 1
  46   25   26 1
  47   25   48 1
  48   25   49 1
  49   26   27 2
  50   26   28 1
  51   28   50 1
  52   29   51 1
  53   29   52 1
  54   29   53 1
  55   30   31 1
  56   30   54 1
  57   30   55 1
  58   31   56 1
  59   31   57 1
  60   31   58 1
  61   32   59 1
  62   32   60 1
  63   32   61 1

#	End of record

