#	Name: ASD05590006
#	Creating user name:	WinNT
#	Creation time:	15. 06. 2019 21:01

#	Modifying user name:	WinNT
#	Modification time:	15. 06. 2019 21:01

#	Program:	/corina/corina34_cracker 3.40 0067  02.08.2006

@<TRIPOS>MOLECULE
ASD05590006
  30   31    0    0    0
SMALL
NO_CHARGES


@<TRIPOS>ATOM
   1 C1            -0.0185     1.5107     0.0103 C.3     
   2 C2             0.0021    -0.0041     0.0020 C.2     
   3 C3             0.4558    -0.7106     1.2617 C.3     
   4 O4            -0.2429    -0.1418     2.3743 O.3     
   5 C5            -0.0936     1.2739     2.4937 C.3     
   6 C6            -0.7340     1.9672     1.2886 C.3     
   7 C7             1.4142     2.0476    -0.0004 C.3     
   8 O8            -0.7229     1.9907    -1.1366 O.3     
   9 O9            -0.3327    -0.6272    -0.9767 O.2     
  10 O10            1.8630    -0.5309     1.4342 O.3     
  11 C11           -0.7768     1.7507     3.7770 C.3     
  12 C12           -0.0629     1.1717     4.9712 C.2     
  13 N13            0.9233     1.7751     5.7039 N.pl3   
  14 C14            1.2819     0.9118     6.6785 C.2     
  15 N15            0.5623    -0.1708     6.5640 N.2     
  16 C16           -0.2767    -0.0366     5.5261 C.2     
  17 H17            0.2271    -1.7738     1.1891 H       
  18 H18            0.9665     1.5241     2.5345 H       
  19 H19           -0.6364     3.0476     1.3952 H       
  20 H20           -1.7889     1.6989     1.2317 H       
  21 H21            1.9262     1.6987    -0.8972 H       
  22 H22            1.3939     3.1374     0.0056 H       
  23 H23            1.9432     1.6892     0.8826 H       
  24 H24           -0.3347     1.7179    -1.9792 H       
  25 H25            2.2202    -0.9590     2.2242 H       
  26 H26           -0.7409     2.8391     3.8248 H       
  27 H27           -1.8157     1.4210     3.7797 H       
  28 H28            1.2952     2.6579     5.5516 H       
  29 H29            2.0390     1.0880     7.4283 H       
  30 H30           -0.9931    -0.7716     5.1900 H       
@<TRIPOS>BOND
   1    1    2 1
   2    1    7 1
   3    1    8 1
   4    1    6 1
   5    2    3 1
   6    2    9 2
   7    3    4 1
   8    3   10 1
   9    3   17 1
  10    4    5 1
  11    5    6 1
  12    5   11 1
  13    5   18 1
  14    6   19 1
  15    6   20 1
  16    7   21 1
  17    7   22 1
  18    7   23 1
  19    8   24 1
  20   10   25 1
  21   11   12 1
  22   11   26 1
  23   11   27 1
  24   12   13 1
  25   12   16 2
  26   13   14 1
  27   13   28 1
  28   14   15 2
  29   14   29 1
  30   15   16 1
  31   16   30 1

#	End of record

