#	Name: ASD01815814
#	Creating user name:	WinNT
#	Creation time:	15. 06. 2019 19:34

#	Modifying user name:	WinNT
#	Modification time:	15. 06. 2019 19:34

#	Program:	/corina/corina34_cracker 3.40 0067  02.08.2006

@<TRIPOS>MOLECULE
ASD01815814
  65   70    0    0    0
SMALL
NO_CHARGES


@<TRIPOS>ATOM
   1 C1             0.0480     1.2930     0.1339 C.ar    
   2 C2             0.0794    -0.0973     0.0993 C.ar    
   3 C3             1.2629    -0.7711     0.0413 C.ar    
   4 C4             2.4705    -0.0567     0.0159 C.ar    
   5 C5             2.4346     1.3587     0.0513 C.ar    
   6 C6             1.2031     2.0188     0.1107 C.ar    
   7 C7             3.7105    -0.7266    -0.0444 C.ar    
   8 C8             4.8774    -0.0395    -0.0695 C.ar    
   9 C9             4.8975     1.3636    -0.0364 C.ar    
  10 C10            3.6961     2.0931     0.0245 C.ar    
  11 C11            6.1565     2.1189    -0.0641 C.2     
  12 N12            6.0745     3.4693    -0.0295 N.am    
  13 C13            4.8670     4.0844     0.0289 C.2     
  14 N14            3.7394     3.4356     0.0540 N.2     
  15 C15            7.2992     4.2728    -0.0548 C.3     
  16 C16            7.2868     5.1859    -1.2840 C.3     
  17 C17            7.3730     5.1332     1.2096 C.3     
  18 C18            8.6226     6.0146     1.1488 C.3     
  19 N19            8.5627     6.8694    -0.0437 N.3     
  20 C20            8.5389     6.0657    -1.2725 C.3     
  21 O21            7.2331     1.5519    -0.1158 O.2     
  22 C22            3.7373    -2.2329    -0.0812 C.3     
  23 C23            3.5718    -2.7037    -1.5031 C.ar    
  24 C24            4.6815    -2.8983    -2.3116 C.ar    
  25 C25            4.4821    -3.3320    -3.6129 C.ar    
  26 C26            3.1915    -3.5548    -4.0588 C.ar    
  27 N27            2.1589    -3.3589    -3.2606 N.ar    
  28 C28            2.3127    -2.9522    -2.0155 C.ar    
  29 Cl29           2.9274    -4.0976    -5.6864 Cl      
  30 C30            9.6771     7.8264    -0.0620 C.3     
  31 C31            9.5193     8.8029     1.0749 C.2     
  32 C32           10.5771     9.7883     1.3507 C.ar    
  33 O33            8.5209     8.7768     1.7625 O.2     
  34 C34           10.4344    10.6962     2.4048 C.ar    
  35 C35           11.4302    11.6160     2.6571 C.ar    
  36 C36           12.5683    11.6426     1.8701 C.ar    
  37 C37           12.7167    10.7477     0.8247 C.ar    
  38 C38           11.7327     9.8177     0.5636 C.ar    
  39 H39           -0.9025     1.8042     0.1753 H       
  40 H40           -0.8476    -0.6511     0.1190 H       
  41 H41            1.2713    -1.8507     0.0153 H       
  42 H42            1.1666     3.0978     0.1376 H       
  43 H43            5.8104    -0.5816    -0.1154 H       
  44 H44            4.8402     5.1637     0.0559 H       
  45 H45            8.1664     3.6139    -0.0993 H       
  46 H46            7.2775     4.5781    -2.1887 H       
  47 H47            6.3984     5.8169    -1.2596 H       
  48 H48            6.4859     5.7634     1.2732 H       
  49 H49            7.4252     4.4878     2.0864 H       
  50 H50            8.6705     6.6388     2.0411 H       
  51 H51            9.5100     5.3836     1.0992 H       
  52 H52            9.4267     5.4345    -1.3108 H       
  53 H53            8.5260     6.7271    -2.1388 H       
  54 H54            4.6899    -2.5890     0.3109 H       
  55 H55            2.9237    -2.6257     0.5286 H       
  56 H56            5.6776    -2.7159    -1.9363 H       
  57 H57            5.3235    -3.4937    -4.2705 H       
  58 H58            1.4438    -2.8030    -1.3917 H       
  59 H59           10.6191     7.2892     0.0485 H       
  60 H60            9.6760     8.3672    -1.0083 H       
  61 H61            9.5466    10.6771     3.0194 H       
  62 H62           11.3215    12.3178     3.4708 H       
  63 H63           13.3446    12.3657     2.0724 H       
  64 H64           13.6075    10.7752     0.2146 H       
  65 H65           11.8499     9.1201    -0.2525 H       
@<TRIPOS>BOND
   1    1    2 ar
   2    1    6 ar
   3    1   39 1
   4    2    3 ar
   5    2   40 1
   6    3    4 ar
   7    3   41 1
   8    4    5 ar
   9    4    7 ar
  10    5    6 ar
  11    5   10 ar
  12    6   42 1
  13    7    8 ar
  14    7   22 1
  15    8    9 ar
  16    8   43 1
  17    9   10 ar
  18    9   11 1
  19   10   14 1
  20   11   12 am
  21   11   21 2
  22   12   13 1
  23   12   15 1
  24   13   14 2
  25   13   44 1
  26   15   16 1
  27   15   17 1
  28   15   45 1
  29   16   20 1
  30   16   46 1
  31   16   47 1
  32   17   18 1
  33   17   48 1
  34   17   49 1
  35   18   19 1
  36   18   50 1
  37   18   51 1
  38   19   20 1
  39   19   30 1
  40   20   52 1
  41   20   53 1
  42   22   23 1
  43   22   54 1
  44   22   55 1
  45   23   24 ar
  46   23   28 ar
  47   24   25 ar
  48   24   56 1
  49   25   26 ar
  50   25   57 1
  51   26   27 ar
  52   26   29 1
  53   27   28 ar
  54   28   58 1
  55   30   31 1
  56   30   59 1
  57   30   60 1
  58   31   32 1
  59   31   33 2
  60   32   34 ar
  61   32   38 ar
  62   34   35 ar
  63   34   61 1
  64   35   36 ar
  65   35   62 1
  66   36   37 ar
  67   36   63 1
  68   37   38 ar
  69   37   64 1
  70   38   65 1

#	End of record

