#	Name: ASD02030693
#	Creating user name:	WinNT
#	Creation time:	15. 06. 2019 20:15

#	Modifying user name:	WinNT
#	Modification time:	15. 06. 2019 20:15

#	Program:	/corina/corina34_cracker 3.40 0067  02.08.2006

@<TRIPOS>MOLECULE
ASD02030693
  31   32    0    0    0
SMALL
NO_CHARGES


@<TRIPOS>ATOM
   1 N1            -0.0169     1.3957     0.0097 N.2     
   2 N2             0.0021    -0.0041     0.0020 N.am    
   3 C3             1.1646    -0.6797    -0.0123 C.2     
   4 N4             2.3448    -0.0325    -0.0200 N.am    
   5 C5             2.3757     1.3164    -0.0131 C.2     
   6 C6             1.1074     2.0610     0.0026 C.2     
   7 O7             1.1494    -1.8958    -0.0178 O.2     
   8 O8             3.4386     1.9089    -0.0192 O.2     
   9 C9            -1.2627    -0.7434     0.0101 C.3     
  10 C10           -1.6892    -1.0085     1.4554 C.3     
  11 C11           -2.9902    -1.7690     1.4637 C.ar    
  12 C12           -2.9828    -3.1515     1.4562 C.ar    
  13 C13           -4.1760    -3.8490     1.4638 C.ar    
  14 C14           -5.3770    -3.1642     1.4794 C.ar    
  15 C15           -5.3843    -1.7821     1.4878 C.ar    
  16 C16           -4.1907    -1.0844     1.4845 C.ar    
  17 C17           -4.1680    -5.3560     1.4546 C.3     
  18 F18           -4.1524    -5.8302     2.7707 F       
  19 F19           -5.3142    -5.8244     0.8036 F       
  20 F20           -3.0298    -5.8121     0.7811 F       
  21 O21            1.1051     3.4197     0.0094 O.3     
  22 H22            3.1737    -0.5362    -0.0303 H       
  23 H23           -2.0303    -0.1556    -0.4933 H       
  24 H24           -1.1322    -1.6923    -0.5101 H       
  25 H25           -0.9215    -1.5962     1.9587 H       
  26 H26           -1.8197    -0.0596     1.9756 H       
  27 H27           -2.0447    -3.6865     1.4440 H       
  28 H28           -6.3094    -3.7092     1.4846 H       
  29 H29           -6.3225    -1.2472     1.4996 H       
  30 H30           -4.1964    -0.0045     1.4949 H       
  31 H31            0.2211     3.8114     0.0197 H       
@<TRIPOS>BOND
   1    1    2 1
   2    1    6 2
   3    2    3 am
   4    2    9 1
   5    3    4 am
   6    3    7 2
   7    4    5 am
   8    4   22 1
   9    5    6 1
  10    5    8 2
  11    6   21 1
  12    9   10 1
  13    9   23 1
  14    9   24 1
  15   10   11 1
  16   10   25 1
  17   10   26 1
  18   11   12 ar
  19   11   16 ar
  20   12   13 ar
  21   12   27 1
  22   13   14 ar
  23   13   17 1
  24   14   15 ar
  25   14   28 1
  26   15   16 ar
  27   15   29 1
  28   16   30 1
  29   17   18 1
  30   17   19 1
  31   17   20 1
  32   21   31 1

#	End of record

