#	Name: ASD00520001
#	Creating user name:	WinNT
#	Creation time:	15. 06. 2019 18:36

#	Modifying user name:	WinNT
#	Modification time:	15. 06. 2019 18:36

#	Program:	/corina/corina34_cracker 3.40 0067  02.08.2006

@<TRIPOS>MOLECULE
ASD00520001
  29   30    0    0    0
SMALL
NO_CHARGES


@<TRIPOS>ATOM
   1 N1            -0.0169     1.3936     0.0097 N.2     
   2 N2             0.0021    -0.0041     0.0020 N.pl3   
   3 C3             1.3072    -0.4112    -0.0126 C.2     
   4 C4             2.0967     0.7272    -0.0141 C.2     
   5 C5             1.2020     1.8423     0.0005 C.2     
   6 C6             3.4685     0.4424    -0.0287 C.2     
   7 C7             3.7835    -0.8612    -0.0387 C.2     
   8 S8             2.3282    -1.8433    -0.0301 S.3     
   9 C9             5.1501    -1.3913    -0.0550 C.2     
  10 O10            6.0986    -0.6287    -0.0603 O.2     
  11 N11            5.3563    -2.7231    -0.0641 N.am    
  12 C12            6.7220    -3.2529    -0.0803 C.3     
  13 C13            6.6758    -4.7822    -0.0880 C.3     
  14 S14            8.3669    -5.4382    -0.1081 S.3     
  15 C15            1.6053     3.2943     0.0037 C.3     
  16 F16            0.4652     4.0947     0.1337 F       
  17 F17            2.4695     3.5359     1.0769 F       
  18 F18            2.2555     3.6003    -1.1967 F       
  19 C19           -1.1721    -0.8802     0.0085 C.3     
  20 H20            4.2197     1.2184    -0.0320 H       
  21 H21            4.6003    -3.3309    -0.0598 H       
  22 H22            7.2378    -2.9005    -0.9736 H       
  23 H23            7.2553    -2.9100     0.8063 H       
  24 H24            6.1600    -5.1346     0.8053 H       
  25 H25            6.1425    -5.1251    -0.9746 H       
  26 H26            8.1750    -6.7694    -0.1133 H       
  27 H27           -1.4728    -1.0923    -1.0175 H       
  28 H28           -0.9263    -1.8133     0.5154 H       
  29 H29           -1.9907    -0.3867     0.5325 H       
@<TRIPOS>BOND
   1    1    2 1
   2    1    5 2
   3    2    3 1
   4    2   19 1
   5    3    4 2
   6    3    8 1
   7    4    5 1
   8    4    6 1
   9    5   15 1
  10    6    7 2
  11    6   20 1
  12    7    8 1
  13    7    9 1
  14    9   10 2
  15    9   11 am
  16   11   12 1
  17   11   21 1
  18   12   13 1
  19   12   22 1
  20   12   23 1
  21   13   14 1
  22   13   24 1
  23   13   25 1
  24   14   26 1
  25   15   16 1
  26   15   17 1
  27   15   18 1
  28   19   27 1
  29   19   28 1
  30   19   29 1

#	End of record

