#	Name: ASD01900030
#	Creating user name:	WinNT
#	Creation time:	15. 06. 2019 19:51

#	Modifying user name:	WinNT
#	Modification time:	15. 06. 2019 19:51

#	Program:	/corina/corina34_cracker 3.40 0067  02.08.2006

@<TRIPOS>MOLECULE
ASD01900030
  36   37    0    0    0
SMALL
NO_CHARGES


@<TRIPOS>ATOM
   1 C1            -0.0104     1.5324    -0.0083 C.3     
   2 C2             0.0069     0.0025    -0.0141 C.3     
   3 C3             0.7274    -0.4946    -1.2690 C.3     
   4 C4             2.1640     0.0317    -1.2744 C.3     
   5 C5             2.1467     1.5616    -1.2686 C.3     
   6 C6             1.4262     2.0587    -0.0138 C.3     
   7 C7             3.5617     2.0800    -1.2740 C.2     
   8 C8             2.8864    -0.4671    -0.0495 C.2     
   9 N9             3.7930     3.4078    -1.2702 N.am    
  10 N10            3.0256    -1.7915     0.1581 N.am    
  11 O11            4.4924     1.3024    -1.2817 O.2     
  12 O12            3.3425     0.3232     0.7494 O.2     
  13 C13            3.7910    -2.2544     1.2341 C.ar    
  14 H14            1.6242     1.9224    -2.1546 H       
  15 H15            2.6773    -0.3224    -2.1684 H       
  16 C16            3.4197    -3.4123     1.9045 C.ar    
  17 C17            4.1776    -3.8674     2.9672 C.ar    
  18 C18            5.3051    -3.1699     3.3634 C.ar    
  19 C19            5.6770    -2.0153     2.6973 C.ar    
  20 C20            4.9263    -1.5596     1.6297 C.ar    
  21 Cl21           7.0919    -1.1428     3.1979 Cl      
  22 Cl22           3.7141    -5.3150     3.8059 Cl      
  23 H23           -0.5329     1.8932    -0.8943 H       
  24 H24           -0.5237     1.8866     0.8857 H       
  25 H25            0.5294    -0.3583     0.8718 H       
  26 H26           -1.0166    -0.3724    -0.0102 H       
  27 H27            0.7397    -1.5845    -1.2731 H       
  28 H28            0.2049    -0.1338    -2.1549 H       
  29 H29            1.4139     3.1486    -0.0096 H       
  30 H30            1.9487     1.6979     0.8722 H       
  31 H31            4.7038     3.7414    -1.2736 H       
  32 H32            3.0486     4.0297    -1.2640 H       
  33 H33            2.5952    -2.4238    -0.4385 H       
  34 H34            2.5394    -3.9567     1.5961 H       
  35 H35            5.8957    -3.5269     4.1942 H       
  36 H36            5.2170    -0.6585     1.1102 H       
@<TRIPOS>BOND
   1    1    2 1
   2    1    6 1
   3    1   23 1
   4    1   24 1
   5    2    3 1
   6    2   25 1
   7    2   26 1
   8    3    4 1
   9    3   27 1
  10    3   28 1
  11    4    5 1
  12    4   15 1
  13    4    8 1
  14    5    6 1
  15    5   14 1
  16    5    7 1
  17    6   29 1
  18    6   30 1
  19    7    9 am
  20    7   11 2
  21    8   10 am
  22    8   12 2
  23    9   31 1
  24    9   32 1
  25   10   13 1
  26   10   33 1
  27   13   16 ar
  28   13   20 ar
  29   16   17 ar
  30   16   34 1
  31   17   18 ar
  32   17   22 1
  33   18   19 ar
  34   18   35 1
  35   19   20 ar
  36   19   21 1
  37   20   36 1

#	End of record

