#	Name: ASD03090311
#	Creating user name:	WinNT
#	Creation time:	15. 06. 2019 20:28

#	Modifying user name:	WinNT
#	Modification time:	15. 06. 2019 20:28

#	Program:	/corina/corina34_cracker 3.40 0067  02.08.2006

@<TRIPOS>MOLECULE
ASD03090311
  57   61    0    0    0
SMALL
NO_CHARGES


@<TRIPOS>ATOM
   1 C1            -0.7682     1.3755    -0.3077 C.ar    
   2 C2            -0.4706     0.1735     0.3213 C.ar    
   3 C3             0.8116    -0.0834     0.7576 C.ar    
   4 C4             1.8161     0.8664     0.5674 C.ar    
   5 C5             1.5180     2.0746    -0.0631 C.ar    
   6 C6             0.2286     2.3278    -0.4978 C.ar    
   7 C7             3.1928     0.5932     1.0336 C.2     
   8 N8             6.4294     1.5346     2.0329 N.pl3   
   9 C9             6.5506     2.9165     1.8654 C.ar    
  10 C10            7.3969     3.6458     2.6915 C.ar    
  11 C11            7.5165     5.0121     2.5257 C.ar    
  12 C12            6.7954     5.6569     1.5390 C.ar    
  13 C13            5.9480     4.9335     0.7109 C.ar    
  14 C14            5.8300     3.5620     0.8695 C.ar    
  15 N15            4.1213     1.4958     1.2815 N.2     
  16 C16            5.2404     0.8907     1.6844 C.2     
  17 N17            5.0438    -0.4072     1.6999 N.2     
  18 N18            3.7198    -0.6261     1.2864 N.pl3   
  19 C19            3.0459    -1.9195     1.1478 C.3     
  20 C20            2.4651    -2.3283     2.4769 C.2     
  21 N21            1.7949    -3.4921     2.5902 N.am    
  22 O22            5.2388     5.5694    -0.2584 O.3     
  23 O23            2.6006    -1.6099     3.4447 O.2     
  24 C24            1.1379    -3.8392     3.8528 C.3     
  25 C25            0.0902    -2.8649     4.3950 C.3     
  26 C26           -0.3469    -4.2047     3.7993 C.3     
  27 O27           -0.0485     3.5145    -1.1047 O.3     
  28 C28           -1.2625     3.5829    -1.8606 C.3     
  29 C29           -2.3875     2.9643    -1.0199 C.3     
  30 O30           -2.0390     1.6043    -0.7375 O.3     
  31 C31            2.0111    -4.5759     4.8704 C.3     
  32 C32            5.4139     6.9833    -0.3686 C.3     
  33 F33            6.7570     7.2673    -0.6380 F       
  34 F34            4.6161     7.4724    -1.4086 F       
  35 F35            5.0400     7.5946     0.8330 F       
  36 H36           -1.2468    -0.5627     0.4694 H       
  37 H37            1.0385    -1.0192     1.2467 H       
  38 H38            2.2929     2.8121    -0.2118 H       
  39 H39            7.1712     1.0225     2.3913 H       
  40 H40            7.9611     3.1444     3.4639 H       
  41 H41            8.1748     5.5774     3.1688 H       
  42 H42            6.8908     6.7251     1.4122 H       
  43 H43            5.1712     2.9976     0.2261 H       
  44 H44            2.2461    -1.8355     0.4121 H       
  45 H45            3.7646    -2.6702     0.8191 H       
  46 H46            1.7477    -4.1000     1.8358 H       
  47 H47            0.0227    -2.7492     5.4768 H       
  48 H48           -0.1102    -1.9658     3.8124 H       
  49 H49           -0.8348    -4.1870     2.8248 H       
  50 H50           -0.7018    -4.9704     4.4891 H       
  51 H51           -1.4991     4.6235    -2.0826 H       
  52 H52           -1.1487     3.0249    -2.7900 H       
  53 H53           -2.4967     3.5182    -0.0875 H       
  54 H54           -3.3231     2.9952    -1.5782 H       
  55 H55            2.8376    -3.9329     5.1730 H       
  56 H56            1.4123    -4.8334     5.7441 H       
  57 H57            2.4055    -5.4863     4.4191 H       
@<TRIPOS>BOND
   1    1    2 ar
   2    1    6 ar
   3    1   30 1
   4    2    3 ar
   5    2   36 1
   6    3    4 ar
   7    3   37 1
   8    4    5 ar
   9    4    7 1
  10    5    6 ar
  11    5   38 1
  12    6   27 1
  13    7   15 2
  14    7   18 1
  15    8    9 1
  16    8   16 1
  17    8   39 1
  18    9   10 ar
  19    9   14 ar
  20   10   11 ar
  21   10   40 1
  22   11   12 ar
  23   11   41 1
  24   12   13 ar
  25   12   42 1
  26   13   14 ar
  27   13   22 1
  28   14   43 1
  29   15   16 1
  30   16   17 2
  31   17   18 1
  32   18   19 1
  33   19   20 1
  34   19   44 1
  35   19   45 1
  36   20   21 am
  37   20   23 2
  38   21   24 1
  39   21   46 1
  40   22   32 1
  41   24   25 1
  42   24   31 1
  43   24   26 1
  44   25   26 1
  45   25   47 1
  46   25   48 1
  47   26   49 1
  48   26   50 1
  49   27   28 1
  50   28   29 1
  51   28   51 1
  52   28   52 1
  53   29   30 1
  54   29   53 1
  55   29   54 1
  56   31   55 1
  57   31   56 1
  58   31   57 1
  59   32   33 1
  60   32   34 1
  61   32   35 1

#	End of record

