#	Name: ASD00170341
#	Creating user name:	WinNT
#	Creation time:	15. 06. 2019 18:31

#	Modifying user name:	WinNT
#	Modification time:	15. 06. 2019 18:31

#	Program:	/corina/corina34_cracker 3.40 0067  02.08.2006

@<TRIPOS>MOLECULE
ASD00170341
  34   36    0    0    0
SMALL
NO_CHARGES


@<TRIPOS>ATOM
   1 C1            -0.0185     1.5118     0.0104 C.3     
   2 C2             0.0021    -0.0041     0.0020 C.2     
   3 C3             1.0779    -0.7305    -0.3286 C.2     
   4 C4             2.4000    -0.0978    -0.7343 C.3     
   5 C5             2.1392     1.3710    -1.0835 C.3     
   6 N6             1.3688     1.9993    -0.0003 N.3     
   7 C7             0.8284    -2.1564    -0.2533 C.2     
   8 C8            -0.4469    -2.4621     0.1370 C.2     
   9 S9            -1.3488    -1.0444     0.4145 S.3     
  10 C10            1.4113     3.4639    -0.1050 C.3     
  11 C11            0.8265     4.0740     1.1427 C.ar    
  12 C12            1.6431     4.3585     2.2212 C.ar    
  13 C13            1.1066     4.9180     3.3657 C.ar    
  14 C14           -0.2464     5.1934     3.4317 C.ar    
  15 C15           -1.0629     4.9098     2.3529 C.ar    
  16 C16           -0.5257     4.3542     1.2067 C.ar    
  17 N17           -0.9370    -3.7477     0.2859 N.pl3   
  18 C18            1.8176    -3.1461    -0.5575 C.1     
  19 N19            2.6023    -3.9313    -0.7988 N.1     
  20 H20           -0.5410     1.8755    -0.8743 H       
  21 H21           -0.5240     1.8660     0.9087 H       
  22 H22            3.1066    -0.1593     0.0933 H       
  23 H23            2.8046    -0.6163    -1.6036 H       
  24 H24            3.0898     1.8909    -1.2025 H       
  25 H25            1.5736     1.4289    -2.0135 H       
  26 H26            2.4451     3.7902    -0.2188 H       
  27 H27            0.8321     3.7832    -0.9714 H       
  28 H28            2.7002     4.1433     2.1697 H       
  29 H29            1.7445     5.1396     4.2086 H       
  30 H30           -0.6657     5.6299     4.3261 H       
  31 H31           -2.1200     5.1247     2.4045 H       
  32 H32           -1.1629     4.1360     0.3625 H       
  33 H33           -0.3626    -4.5092     0.1093 H       
  34 H34           -1.8548    -3.8874     0.5668 H       
@<TRIPOS>BOND
   1    1    2 1
   2    1    6 1
   3    1   20 1
   4    1   21 1
   5    2    3 2
   6    2    9 1
   7    3    4 1
   8    3    7 1
   9    4    5 1
  10    4   22 1
  11    4   23 1
  12    5    6 1
  13    5   24 1
  14    5   25 1
  15    6   10 1
  16    7    8 2
  17    7   18 1
  18    8    9 1
  19    8   17 1
  20   10   11 1
  21   10   26 1
  22   10   27 1
  23   11   12 ar
  24   11   16 ar
  25   12   13 ar
  26   12   28 1
  27   13   14 ar
  28   13   29 1
  29   14   15 ar
  30   14   30 1
  31   15   16 ar
  32   15   31 1
  33   16   32 1
  34   17   33 1
  35   17   34 1
  36   18   19 3

#	End of record

