#	Name: ASD00842977
#	Creating user name:	WinNT
#	Creation time:	15. 06. 2019 18:45

#	Modifying user name:	WinNT
#	Modification time:	15. 06. 2019 18:45

#	Program:	/corina/corina34_cracker 3.40 0067  02.08.2006

@<TRIPOS>MOLECULE
ASD00842977
  79   84    0    0    0
SMALL
NO_CHARGES


@<TRIPOS>ATOM
   1 F1            -0.1148    -3.1508     4.7167 F       
   2 N2            -0.0064     1.3225     0.0259 N.ar    
   3 C3             0.0082     0.0002     0.0130 C.ar    
   4 C4             1.2113    -0.6942    -0.0055 C.ar    
   5 C5             2.3987     0.0164    -0.0103 C.ar    
   6 C6             2.3404     1.4034     0.0037 C.ar    
   7 C7             1.1092     2.0274     0.0218 C.ar    
   8 C8             1.2231    -2.2011    -0.0196 C.3     
   9 C9             0.4753    -2.7260    -1.2267 C.2     
  10 N10            2.5997    -2.7023    -0.0108 N.am    
  11 C11            3.4466    -2.3635    -1.0029 C.2     
  12 N12            4.7401    -2.7371    -0.9417 N.am    
  13 O13            3.0437    -1.7208    -1.9532 O.2     
  14 C14            5.2740    -3.4169     0.2482 C.3     
  15 C15            6.0034    -4.6868    -0.2029 C.3     
  16 N16            7.0040    -4.3378    -1.2202 N.3     
  17 C17            6.3695    -3.7827    -2.4233 C.3     
  18 C18            5.6537    -2.4812    -2.0656 C.3     
  19 C19            7.8417    -5.4974    -1.5542 C.3     
  20 C20            8.7868    -5.1321    -2.7023 C.3     
  21 C21            9.6983    -6.3236    -3.0049 C.3     
  22 N22           10.4690    -6.6695    -1.8037 N.3     
  23 C23            9.5843    -7.0693    -0.7020 C.3     
  24 C24            8.6695    -5.9000    -0.3306 C.3     
  25 H25           11.1461    -7.3904    -2.0037 H       
  26 O26            0.7555    -2.5274    -2.3900 O.2     
  27 N27           -0.5566    -3.4537    -0.7674 N.am    
  28 C28            0.4500    -2.7477     1.1585 C.ar    
  29 C29           -0.6001    -3.4867     0.6280 C.ar    
  30 C30            0.6154    -2.6333     2.5203 C.ar    
  31 C31           -0.2729    -3.2606     3.3795 C.ar    
  32 C32           -1.3242    -4.0004     2.8621 C.ar    
  33 C33           -1.4900    -4.1150     1.4961 C.ar    
  34 Cl34          -2.4380    -4.7869     3.9365 Cl      
  35 C35           -1.0274    -5.8407    -2.0538 C.ar    
  36 C36           -1.3589    -6.8830    -1.2085 C.ar    
  37 C37           -0.2109    -6.0692    -3.1457 C.ar    
  38 C38            0.2739    -7.3401    -3.3922 C.ar    
  39 C39           -0.0573    -8.3823    -2.5466 C.ar    
  40 C40           -0.8737    -8.1538    -1.4548 C.ar    
  41 H41            0.3215    -9.3752    -2.7392 H       
  42 H42           -1.9967    -6.7045    -0.3555 H       
  43 S43           -1.6513    -4.2223    -1.7437 S.o2    
  44 O44           -2.8315    -4.3887    -0.9700 O.2     
  45 O45           -1.6283    -3.5380    -2.9888 O.2     
  46 O46           -1.1629    -0.6848     0.0184 O.3     
  47 C47           -2.3656     0.0866     0.0381 C.3     
  48 C48           -3.5737    -0.8522     0.0413 C.3     
  49 F49           -3.5489    -1.6481    -1.1090 F       
  50 F50           -3.5256    -1.6701     1.1754 F       
  51 H51            3.3491    -0.4964    -0.0242 H       
  52 H52            3.2485     1.9879     0.0007 H       
  53 H53            1.0583     3.1062     0.0323 H       
  54 H54            2.9015    -3.2781     0.7091 H       
  55 H55            5.9719    -2.7575     0.7643 H       
  56 H56            4.4550    -3.6828     0.9164 H       
  57 H57            6.4993    -5.1449     0.6529 H       
  58 H58            5.2844    -5.3885    -0.6256 H       
  59 H59            7.1310    -3.5851    -3.1778 H       
  60 H60            5.6454    -4.4970    -2.8151 H       
  61 H61            5.0872    -2.1263    -2.9266 H       
  62 H62            6.3860    -1.7297    -1.7706 H       
  63 H63            7.2070    -6.3305    -1.8560 H       
  64 H64            8.2035    -4.8856    -3.5894 H       
  65 H65            9.3937    -4.2735    -2.4149 H       
  66 H66            9.0916    -7.1778    -3.3055 H       
  67 H67           10.3821    -6.0619    -3.8124 H       
  68 H68            8.9782    -7.9200    -1.0134 H       
  69 H69           10.1854    -7.3491     0.1632 H       
  70 H70            9.2745    -5.0535    -0.0059 H       
  71 H71            8.0023    -6.2022     0.4767 H       
  72 H72            1.4365    -2.0559     2.9187 H       
  73 H73           -2.3116    -4.6933     1.0999 H       
  74 H74            0.0479    -5.2550    -3.8063 H       
  75 H75            0.9112    -7.5188    -4.2456 H       
  76 H76           -1.1327    -8.9681    -0.7944 H       
  77 H77           -2.3849     0.7067     0.9343 H       
  78 H78           -2.4031     0.7238    -0.8455 H       
  79 H79           -4.4911    -0.2638     0.0564 H       
@<TRIPOS>BOND
   1    1   31 1
   2    2    3 ar
   3    2    7 ar
   4    3    4 ar
   5    3   46 1
   6    4    5 ar
   7    4    8 1
   8    5    6 ar
   9    5   51 1
  10    6    7 ar
  11    6   52 1
  12    7   53 1
  13    8    9 1
  14    8   10 1
  15    8   28 1
  16    9   26 2
  17    9   27 am
  18   10   11 am
  19   10   54 1
  20   11   12 am
  21   11   13 2
  22   12   14 1
  23   12   18 1
  24   14   15 1
  25   14   55 1
  26   14   56 1
  27   15   16 1
  28   15   57 1
  29   15   58 1
  30   16   17 1
  31   16   19 1
  32   17   18 1
  33   17   59 1
  34   17   60 1
  35   18   61 1
  36   18   62 1
  37   19   20 1
  38   19   24 1
  39   19   63 1
  40   20   21 1
  41   20   64 1
  42   20   65 1
  43   21   22 1
  44   21   66 1
  45   21   67 1
  46   22   23 1
  47   22   25 1
  48   23   24 1
  49   23   68 1
  50   23   69 1
  51   24   70 1
  52   24   71 1
  53   27   43 am
  54   27   29 1
  55   28   29 ar
  56   28   30 ar
  57   29   33 ar
  58   30   31 ar
  59   30   72 1
  60   31   32 ar
  61   32   33 ar
  62   32   34 1
  63   33   73 1
  64   35   36 ar
  65   35   37 ar
  66   35   43 1
  67   36   42 1
  68   36   40 ar
  69   37   38 ar
  70   37   74 1
  71   38   39 ar
  72   38   75 1
  73   39   40 ar
  74   39   41 1
  75   40   76 1
  76   43   44 2
  77   43   45 2
  78   46   47 1
  79   47   48 1
  80   47   77 1
  81   47   78 1
  82   48   49 1
  83   48   50 1
  84   48   79 1

#	End of record

