#	Name: ASD05490249
#	Creating user name:	WinNT
#	Creation time:	15. 06. 2019 21:01

#	Modifying user name:	WinNT
#	Modification time:	15. 06. 2019 21:01

#	Program:	/corina/corina34_cracker 3.40 0067  02.08.2006

@<TRIPOS>MOLECULE
ASD05490249
  67   70    0    0    0
SMALL
NO_CHARGES


@<TRIPOS>ATOM
   1 N1            -0.0140     1.3235    -0.0018 N.ar    
   2 C2             0.0026    -0.0005    -0.0086 C.ar    
   3 C3             1.1990    -0.7004    -0.0178 C.ar    
   4 C4             2.3953     0.0106    -0.0206 C.ar    
   5 C5             2.3404     1.4047    -0.0168 C.ar    
   6 C6             1.1047     2.0380    -0.0056 C.ar    
   7 N7             3.6186    -0.6479    -0.0229 N.3     
   8 C8             3.4706    -2.0318    -0.4926 C.3     
   9 C9             4.7908    -2.7480    -0.3696 C.ar    
  10 C10            5.1057    -3.4216     0.7954 C.ar    
  11 C11            6.3170    -4.0785     0.9083 C.ar    
  12 C12            7.2128    -4.0621    -0.1442 C.ar    
  13 C13            6.8974    -3.3890    -1.3099 C.ar    
  14 C14            5.6847    -2.7359    -1.4243 C.ar    
  15 N15            7.6161    -4.5135    -3.3368 N.am    
  16 N16            1.0388     3.4288     0.0012 N.pl3   
  17 O17           -1.1706    -0.6833    -0.0060 O.3     
  18 C18           -2.3717     0.0908     0.0041 C.3     
  19 N19            3.5364     2.1439    -0.0281 N.am    
  20 C20            4.6274     0.0692    -0.8097 C.3     
  21 C21            4.6764     1.5173    -0.3970 C.2     
  22 O22            5.7309     2.1170    -0.3961 O.2     
  23 C23            7.8743    -3.3707    -2.4572 C.3     
  24 S24            6.6529    -4.3303    -4.6713 S.o2    
  25 C25           -3.5818    -0.8454     0.0055 C.3     
  26 C26           -4.8678    -0.0166     0.0164 C.3     
  27 C27           -6.0780    -0.9528     0.0178 C.3     
  28 C28            7.7995    -3.8599    -5.9960 C.3     
  29 C29            9.6252    -5.8803    -3.6140 C.3     
  30 C30            8.2101    -5.8184    -3.0357 C.3     
  31 O31            6.1270    -5.6295    -4.9049 O.2     
  32 C32           10.4612    -7.1237    -3.3044 C.3     
  33 C33            9.8958    -6.9127    -4.7103 C.3     
  34 O34            5.7996    -3.2430    -4.3410 O.2     
  35 H35            1.2028    -1.7804    -0.0225 H       
  36 H36            2.7222    -2.5430     0.1130 H       
  37 H37            3.1542    -2.0297    -1.5357 H       
  38 H38            4.4058    -3.4344     1.6178 H       
  39 H39            6.5634    -4.6043     1.8189 H       
  40 H40            8.1593    -4.5746    -0.0557 H       
  41 H41            5.4383    -2.2102    -2.3350 H       
  42 H42            1.8549     3.9530    -0.0019 H       
  43 H43            0.1768     3.8735     0.0091 H       
  44 H44           -2.3941     0.7150     0.8974 H       
  45 H45           -2.4033     0.7241    -0.8825 H       
  46 H46            3.5435     3.0810     0.2224 H       
  47 H47            5.6040    -0.3863    -0.6458 H       
  48 H48            4.3737     0.0035    -1.8678 H       
  49 H49            7.7561    -2.4449    -3.0203 H       
  50 H50            8.8912    -3.4329    -2.0697 H       
  51 H51           -3.5594    -1.4696    -0.8877 H       
  52 H52           -3.5502    -1.4787     0.8922 H       
  53 H53           -4.8903     0.6076     0.9097 H       
  54 H54           -4.8994     0.6167    -0.8702 H       
  55 H55           -6.0555    -1.5770    -0.8755 H       
  56 H56           -6.0464    -1.5860     0.9045 H       
  57 H57           -6.9941    -0.3623     0.0256 H       
  58 H58            8.6229    -4.5732    -6.0340 H       
  59 H59            7.2727    -3.8619    -6.9502 H       
  60 H60            8.1919    -2.8622    -5.7996 H       
  61 H61           10.1480    -4.9262    -3.6807 H       
  62 H62            8.2526    -5.9577    -1.9554 H       
  63 H63            7.6013    -6.6059    -3.4798 H       
  64 H64           11.5340    -6.9877    -3.1677 H       
  65 H65           10.0030    -7.8977    -2.6886 H       
  66 H66            9.0656    -7.5478    -5.0195 H       
  67 H67           10.5966    -6.6378    -5.4986 H       
@<TRIPOS>BOND
   1    1    2 ar
   2    1    6 ar
   3    2    3 ar
   4    2   17 1
   5    3    4 ar
   6    3   35 1
   7    4    5 ar
   8    4    7 1
   9    5    6 ar
  10    5   19 1
  11    6   16 1
  12    7    8 1
  13    7   20 1
  14    8    9 1
  15    8   36 1
  16    8   37 1
  17    9   10 ar
  18    9   14 ar
  19   10   11 ar
  20   10   38 1
  21   11   12 ar
  22   11   39 1
  23   12   13 ar
  24   12   40 1
  25   13   14 ar
  26   13   23 1
  27   14   41 1
  28   15   24 am
  29   15   23 1
  30   15   30 1
  31   16   42 1
  32   16   43 1
  33   17   18 1
  34   18   25 1
  35   18   44 1
  36   18   45 1
  37   19   21 am
  38   19   46 1
  39   20   21 1
  40   20   47 1
  41   20   48 1
  42   21   22 2
  43   23   49 1
  44   23   50 1
  45   24   28 1
  46   24   31 2
  47   24   34 2
  48   25   26 1
  49   25   51 1
  50   25   52 1
  51   26   27 1
  52   26   53 1
  53   26   54 1
  54   27   55 1
  55   27   56 1
  56   27   57 1
  57   28   58 1
  58   28   59 1
  59   28   60 1
  60   29   30 1
  61   29   32 1
  62   29   33 1
  63   29   61 1
  64   30   62 1
  65   30   63 1
  66   32   33 1
  67   32   64 1
  68   32   65 1
  69   33   66 1
  70   33   67 1

#	End of record

