#	Name: ASD02980002
#	Creating user name:	WinNT
#	Creation time:	15. 06. 2019 20:26

#	Modifying user name:	WinNT
#	Modification time:	15. 06. 2019 20:26

#	Program:	/corina/corina34_cracker 3.40 0067  02.08.2006

@<TRIPOS>MOLECULE
ASD02980002
  74   76    0    0    0
SMALL
NO_CHARGES


@<TRIPOS>ATOM
   1 O1            -0.0173     1.4248     0.0099 O.3     
   2 C2             0.0021    -0.0041     0.0020 C.3     
   3 C3             0.7175    -0.5102     1.2573 C.3     
   4 C4             2.1334     0.0727     1.2986 C.3     
   5 C5             2.0458     1.6014     1.2560 C.3     
   6 C6             1.2791     2.0260     0.0007 C.3     
   7 C7            -1.4332    -0.5337    -0.0158 C.3     
   8 C8            -2.1484    -0.0266    -1.2697 C.3     
   9 C9            -3.5837    -0.5563    -1.2876 C.3     
  10 O10           -4.2150    -0.1801    -2.5131 O.3     
  11 O11           -2.1680     1.4023    -1.2619 O.3     
  12 O12           -1.4136    -1.9626    -0.0237 O.3     
  13 C13            2.0328     1.5767    -1.2245 C.2     
  14 O14            3.3152     1.9356    -1.3928 O.3     
  15 O15            1.1446     3.4485    -0.0172 O.3     
  16 N16           -0.0223    -0.0841     2.4478 N.am    
  17 O17            2.7834    -0.3354     2.5040 O.3     
  18 C18            0.0858    -0.7837     3.5947 C.2     
  19 C19           -0.6752    -0.3453     4.8193 C.3     
  20 O20            0.7956    -1.7660     3.6412 O.2     
  21 O21            1.4826     0.8935    -2.0554 O.2     
  22 P22            0.3898     4.2432    -1.1965 P.3     
  23 O23            1.2008     4.0557    -2.5746 O.3     
  24 O24           -0.9808     3.7073    -1.3538 O.2     
  25 C25            0.3049     6.0154    -0.7777 C.3     
  26 C26           -0.5198     6.7506    -1.8360 C.3     
  27 C27           -0.5910     8.2380    -1.4844 C.3     
  28 C28           -1.5220     8.9794    -2.4693 C.3     
  29 C29           -0.8348    10.3474    -2.6779 C.3     
  30 C30            0.4301    10.2707    -1.7944 C.3     
  31 O31            0.7012     8.8585    -1.6600 O.3     
  32 N32            1.5525    10.9453    -2.4511 N.am    
  33 C33            2.0469    10.4553    -3.6027 C.2     
  34 N34            3.0670    11.0482    -4.2206 N.2     
  35 C35            3.6227    12.1412    -3.7142 C.2     
  36 C36            3.1277    12.6804    -2.5090 C.2     
  37 C37            2.0869    12.0690    -1.8955 C.2     
  38 O38            1.5530     9.4512    -4.0885 O.2     
  39 N39            4.6761    12.7449    -4.3609 N.pl3   
  40 O40           -2.8199     9.1531    -1.8971 O.3     
  41 O41           -1.6873    11.4078    -2.2410 O.3     
  42 H42            0.5305    -0.3556    -0.8842 H       
  43 H43            0.7722    -1.5985     1.2315 H       
  44 H44            2.6999    -0.2842     0.4385 H       
  45 H45            1.5222     1.9611     2.1417 H       
  46 H46            3.0505     2.0232     1.2292 H       
  47 H47           -1.9612    -0.1825     0.8707 H       
  48 H48           -1.6204    -0.3778    -2.1563 H       
  49 H49           -3.5710    -1.6430    -1.2040 H       
  50 H50           -4.1373    -0.1338    -0.4491 H       
  51 H51           -5.1298    -0.4831    -2.5935 H       
  52 H52           -2.6230     1.7852    -0.4993 H       
  53 H53           -0.9586    -2.3455    -0.7862 H       
  54 H54            3.7569     1.6234    -2.1943 H       
  55 H55           -0.5900     0.7016     2.4107 H       
  56 H56            3.6861    -0.0014     2.5966 H       
  57 H57           -1.7440    -0.3540     4.6054 H       
  58 H58           -0.4639    -1.0282     5.6422 H       
  59 H59           -0.3683     0.6632     5.0962 H       
  60 H60            2.1093     4.3855    -2.5443 H       
  61 H61           -0.1656     6.1360     0.1981 H       
  62 H62            1.3124     6.4306    -0.7490 H       
  63 H63           -0.0493     6.6300    -2.8117 H       
  64 H64           -1.5273     6.3354    -1.8646 H       
  65 H65           -0.9407     8.3688    -0.4603 H       
  66 H66           -1.5889     8.4378    -3.4128 H       
  67 H67           -0.5620    10.4821    -3.7246 H       
  68 H68            0.2382    10.7149    -0.8177 H       
  69 H69            3.5695    13.5695    -2.0837 H       
  70 H70            1.6898    12.4630    -0.9717 H       
  71 H71            5.0146    12.3715    -5.1897 H       
  72 H72            5.0804    13.5440    -3.9882 H       
  73 H73           -3.4453     9.6134    -2.4733 H       
  74 H74           -2.5239    11.4637    -2.7226 H       
@<TRIPOS>BOND
   1    1    2 1
   2    1    6 1
   3    2    3 1
   4    2    7 1
   5    2   42 1
   6    3    4 1
   7    3   16 1
   8    3   43 1
   9    4    5 1
  10    4   17 1
  11    4   44 1
  12    5    6 1
  13    5   45 1
  14    5   46 1
  15    6   13 1
  16    6   15 1
  17    7    8 1
  18    7   12 1
  19    7   47 1
  20    8    9 1
  21    8   11 1
  22    8   48 1
  23    9   10 1
  24    9   49 1
  25    9   50 1
  26   10   51 1
  27   11   52 1
  28   12   53 1
  29   13   14 1
  30   13   21 2
  31   14   54 1
  32   15   22 1
  33   16   18 am
  34   16   55 1
  35   17   56 1
  36   18   19 1
  37   18   20 2
  38   19   57 1
  39   19   58 1
  40   19   59 1
  41   22   23 1
  42   22   24 2
  43   22   25 1
  44   23   60 1
  45   25   26 1
  46   25   61 1
  47   25   62 1
  48   26   27 1
  49   26   63 1
  50   26   64 1
  51   27   28 1
  52   27   31 1
  53   27   65 1
  54   28   29 1
  55   28   40 1
  56   28   66 1
  57   29   30 1
  58   29   41 1
  59   29   67 1
  60   30   31 1
  61   30   32 1
  62   30   68 1
  63   32   33 am
  64   32   37 1
  65   33   34 1
  66   33   38 2
  67   34   35 2
  68   35   36 1
  69   35   39 1
  70   36   37 2
  71   36   69 1
  72   37   70 1
  73   39   71 1
  74   39   72 1
  75   40   73 1
  76   41   74 1

#	End of record

