#	Name: ASD01913147
#	Creating user name:	WinNT
#	Creation time:	15. 06. 2019 20:01

#	Modifying user name:	WinNT
#	Modification time:	15. 06. 2019 20:01

#	Program:	/corina/corina34_cracker 3.40 0067  02.08.2006

@<TRIPOS>MOLECULE
ASD01913147
  52   54    0    0    0
SMALL
NO_CHARGES


@<TRIPOS>ATOM
   1 C1             0.1057     1.1081    -0.1479 C.ar    
   2 C2             0.1111    -0.2732    -0.2425 C.ar    
   3 C3            -1.0811    -0.9711    -0.2394 C.ar    
   4 C4            -2.2840    -0.2874    -0.1413 C.ar    
   5 C5            -2.2879     1.0964    -0.0465 C.ar    
   6 C6            -1.0940     1.7915    -0.0446 C.ar    
   7 O7            -3.4580    -0.9729    -0.1385 O.3     
   8 C8            -4.6580    -0.2039    -0.0346 C.3     
   9 C9            -5.8671    -1.1413    -0.0477 C.3     
  10 C10           -7.1326    -0.3304     0.0618 C.2     
  11 N11           -8.3303    -0.9484     0.0703 N.am    
  12 C12           -9.5775    -0.1760     0.1763 C.3     
  13 C13          -10.5195    -0.6155    -0.9496 C.3     
  14 N14          -10.6863    -2.0742    -0.9028 N.3     
  15 C15           -9.4122    -2.7643    -1.1443 C.3     
  16 C16           -8.4251    -2.4125    -0.0324 C.3     
  17 O17           -7.0732     0.8783     0.1424 O.2     
  18 C18          -11.6632    -2.4956    -1.8078 C.ar    
  19 C19          -11.4672    -2.3265    -3.1723 C.ar    
  20 C20          -12.4350    -2.7448    -4.0646 C.ar    
  21 C21          -13.5982    -3.3309    -3.6007 C.ar    
  22 C22          -13.7966    -3.5008    -2.2425 C.ar    
  23 C23          -12.8306    -3.0901    -1.3453 C.ar    
  24 C24          -13.0474    -3.2762     0.1343 C.3     
  25 F25            1.2724     1.7893    -0.1506 F       
  26 O26          -12.5690    -4.5640     0.5277 O.3     
  27 C27          -15.0662    -4.1397    -1.7415 C.3     
  28 F28          -15.8812    -4.4727    -2.8287 F       
  29 F29          -14.7529    -5.2977    -1.0216 F       
  30 F30          -15.7430    -3.2419    -0.9090 F       
  31 H31            1.0478    -0.8053    -0.3193 H       
  32 H32           -1.0767    -2.0486    -0.3136 H       
  33 H33           -3.2238     1.6301     0.0296 H       
  34 H34           -1.0968     2.8689     0.0296 H       
  35 H35           -4.6472     0.3623     0.8967 H       
  36 H36           -4.7226     0.4842    -0.8775 H       
  37 H37           -5.8778    -1.7076    -0.9790 H       
  38 H38           -5.8024    -1.8295     0.7952 H       
  39 H39          -10.0461    -0.3680     1.1416 H       
  40 H40           -9.3593     0.8873     0.0771 H       
  41 H41          -11.4890    -0.1342    -0.8214 H       
  42 H42          -10.0950    -0.3287    -1.9117 H       
  43 H43           -9.5787    -3.8415    -1.1572 H       
  44 H44           -9.0031    -2.4476    -2.1037 H       
  45 H45           -7.4455    -2.8289    -0.2672 H       
  46 H46           -8.7809    -2.8178     0.9148 H       
  47 H47          -10.5591    -1.8681    -3.5353 H       
  48 H48          -12.2832    -2.6136    -5.1258 H       
  49 H49          -14.3537    -3.6564    -4.3004 H       
  50 H50          -12.5051    -2.5046     0.6809 H       
  51 H51          -14.1115    -3.2000     0.3580 H       
  52 H52          -12.6768    -4.7526     1.4700 H       
@<TRIPOS>BOND
   1    1    2 ar
   2    1   25 1
   3    1    6 ar
   4    2    3 ar
   5    2   31 1
   6    3    4 ar
   7    3   32 1
   8    4    5 ar
   9    4    7 1
  10    5    6 ar
  11    5   33 1
  12    6   34 1
  13    7    8 1
  14    8    9 1
  15    8   35 1
  16    8   36 1
  17    9   10 1
  18    9   37 1
  19    9   38 1
  20   10   11 am
  21   10   17 2
  22   11   12 1
  23   11   16 1
  24   12   13 1
  25   12   39 1
  26   12   40 1
  27   13   14 1
  28   13   41 1
  29   13   42 1
  30   14   15 1
  31   14   18 1
  32   15   16 1
  33   15   43 1
  34   15   44 1
  35   16   45 1
  36   16   46 1
  37   18   19 ar
  38   18   23 ar
  39   19   20 ar
  40   19   47 1
  41   20   21 ar
  42   20   48 1
  43   21   22 ar
  44   21   49 1
  45   22   23 ar
  46   22   27 1
  47   23   24 1
  48   24   26 1
  49   24   50 1
  50   24   51 1
  51   26   52 1
  52   27   28 1
  53   27   29 1
  54   27   30 1

#	End of record

