#	Name: ASD01913198
#	Creating user name:	WinNT
#	Creation time:	15. 06. 2019 20:01

#	Modifying user name:	WinNT
#	Modification time:	15. 06. 2019 20:01

#	Program:	/corina/corina34_cracker 3.40 0067  02.08.2006

@<TRIPOS>MOLECULE
ASD01913198
  47   50    0    0    0
SMALL
NO_CHARGES


@<TRIPOS>ATOM
   1 C1             0.0025     1.3903     0.5371 C.3     
   2 N2             0.0072    -0.0474     0.2490 N.am    
   3 C3             1.4076    -0.4818     0.2736 C.3     
   4 C4             2.2566     0.7251     0.5834 C.ar    
   5 C5             3.6270     0.8651     0.7208 C.ar    
   6 C6             4.1715     2.1008     1.0126 C.ar    
   7 C7             3.3468     3.1996     1.1673 C.ar    
   8 C8             1.9792     3.0606     1.0299 C.ar    
   9 C9             1.4330     1.8224     0.7379 C.ar    
  10 N10            5.6369     2.2482     1.1601 N.pl3   
  11 O11            6.3631     1.2798     1.0241 O.2     
  12 O12            6.1166     3.3378     1.4174 O.2     
  13 C13           -1.0694    -0.8216     0.0083 C.2     
  14 C14           -2.4278    -0.2573     0.1356 C.ar    
  15 C15           -3.5410    -1.0909     0.0376 C.ar    
  16 C16           -4.8202    -0.5527     0.1591 C.ar    
  17 C17           -4.9785     0.8256     0.3795 C.ar    
  18 C18           -3.8634     1.6455     0.4749 C.ar    
  19 C19           -2.5977     1.1125     0.3605 C.ar    
  20 O20           -0.9220    -1.9847    -0.3139 O.2     
  21 C21           -5.9694    -1.4012     0.0592 C.1     
  22 C22           -6.9115    -2.0969    -0.0226 C.1     
  23 C23           -8.0607    -2.9454    -0.1225 C.ar    
  24 C24           -9.3407    -2.3975     0.0006 C.ar    
  25 C25          -10.4397    -3.2307    -0.0983 C.ar    
  26 C26          -10.2278    -4.5857    -0.3170 C.ar    
  27 C27           -8.9346    -5.0620    -0.4292 C.ar    
  28 N28           -7.9028    -4.2482    -0.3370 N.ar    
  29 O29           -6.2214     1.3548     0.4985 O.3     
  30 C30           -6.3079     2.7636     0.7216 C.3     
  31 H31           -0.4334     1.9337    -0.3013 H       
  32 H32           -0.5725     1.5837     1.4428 H       
  33 H33            1.5461    -1.2389     1.0454 H       
  34 H34            1.6852    -0.8890    -0.6987 H       
  35 H35            4.2715     0.0069     0.6000 H       
  36 H36            3.7714     4.1660     1.3958 H       
  37 H37            1.3352     3.9190     1.1512 H       
  38 H38           -3.4122    -2.1496    -0.1323 H       
  39 H39           -3.9876     2.7049     0.6440 H       
  40 H40           -1.7339     1.7557     0.4405 H       
  41 H41           -9.4694    -1.3388     0.1708 H       
  42 H42          -11.4410    -2.8364    -0.0070 H       
  43 H43          -11.0661    -5.2617    -0.3985 H       
  44 H44           -8.7682    -6.1154    -0.5994 H       
  45 H45           -5.8429     3.2925    -0.1103 H       
  46 H46           -7.3553     3.0558     0.7978 H       
  47 H47           -5.7917     3.0173     1.6475 H       
@<TRIPOS>BOND
   1    1    2 1
   2    1    9 1
   3    1   31 1
   4    1   32 1
   5    2    3 1
   6    2   13 am
   7    3    4 1
   8    3   33 1
   9    3   34 1
  10    4    5 ar
  11    4    9 ar
  12    5    6 ar
  13    5   35 1
  14    6    7 ar
  15    6   10 1
  16    7    8 ar
  17    7   36 1
  18    8    9 ar
  19    8   37 1
  20   10   11 2
  21   10   12 2
  22   13   14 1
  23   13   20 2
  24   14   15 ar
  25   14   19 ar
  26   15   16 ar
  27   15   38 1
  28   16   17 ar
  29   16   21 1
  30   17   18 ar
  31   17   29 1
  32   18   19 ar
  33   18   39 1
  34   19   40 1
  35   21   22 3
  36   22   23 1
  37   23   24 ar
  38   23   28 ar
  39   24   25 ar
  40   24   41 1
  41   25   26 ar
  42   25   42 1
  43   26   27 ar
  44   26   43 1
  45   27   28 ar
  46   27   44 1
  47   29   30 1
  48   30   45 1
  49   30   46 1
  50   30   47 1

#	End of record

