#	Name: ASD00310153
#	Creating user name:	WinNT
#	Creation time:	15. 06. 2019 18:33

#	Modifying user name:	WinNT
#	Modification time:	15. 06. 2019 18:33

#	Program:	/corina/corina34_cracker 3.40 0067  02.08.2006

@<TRIPOS>MOLECULE
ASD00310153
  39   42    0    0    0
SMALL
NO_CHARGES


@<TRIPOS>ATOM
   1 N1            -0.0153     1.2793     0.0091 N.pl3   
   2 N2             0.0021    -0.0041     0.0020 N.2     
   3 C3             1.2292    -0.4800    -0.0122 C.2     
   4 C4             2.1243     0.6858    -0.0145 C.ar    
   5 C5             3.5011     0.8764    -0.0275 C.ar    
   6 C6             4.0087     2.1691    -0.0262 C.ar    
   7 C7             3.1370     3.2661    -0.0120 C.ar    
   8 C8             1.7843     3.0824     0.0012 C.ar    
   9 C9             1.2548     1.7947    -0.0003 C.ar    
  10 C10            1.6260    -1.8977    -0.0229 C.2     
  11 O11            2.8034    -2.1991    -0.0354 O.2     
  12 O12            0.6837    -2.8615    -0.0188 O.3     
  13 C13            8.2164     2.8005    -0.0633 C.ar    
  14 C14            7.4028     3.4687    -0.9782 C.ar    
  15 C15            6.0407     3.2643    -0.9661 C.ar    
  16 C16            5.4751     2.3888    -0.0395 C.ar    
  17 C17            6.2886     1.7202     0.8750 C.ar    
  18 C18            7.6507     1.9249     0.8634 C.ar    
  19 C19            9.6831     3.0158    -0.0802 C.ar    
  20 C20           10.3617     3.3239     1.1035 C.ar    
  21 C21           11.7324     3.5230     1.0783 C.ar    
  22 C22           12.4258     3.4177    -0.1129 C.ar    
  23 C23           11.7574     3.1131    -1.2854 C.ar    
  24 C24           10.3926     2.9065    -1.2741 C.ar    
  25 O25            9.6791     3.4279     2.2733 O.3     
  26 Cl26           3.7845     4.8768    -0.0106 Cl      
  27 H27           -0.8235     1.8157     0.0160 H       
  28 H28            4.1693     0.0279    -0.0381 H       
  29 H29            1.1241     3.9370     0.0124 H       
  30 H30            0.9927    -3.7777    -0.0262 H       
  31 H31            7.8407     4.1470    -1.6955 H       
  32 H32            5.4107     3.7820    -1.6742 H       
  33 H33            5.8506     1.0422     1.5925 H       
  34 H34            8.2806     1.4071     1.5715 H       
  35 H35           12.2598     3.7610     1.9902 H       
  36 H36           13.4943     3.5743    -0.1285 H       
  37 H37           12.3060     3.0329    -2.2122 H       
  38 H38            9.8749     2.6645    -2.1905 H       
  39 H39            9.6090     2.5970     2.7630 H       
@<TRIPOS>BOND
   1    1    2 1
   2    1    9 1
   3    1   27 1
   4    2    3 2
   5    3    4 1
   6    3   10 1
   7    4    5 ar
   8    4    9 ar
   9    5    6 ar
  10    5   28 1
  11    6    7 ar
  12    6   16 1
  13    7    8 ar
  14    7   26 1
  15    8    9 ar
  16    8   29 1
  17   10   11 2
  18   10   12 1
  19   12   30 1
  20   13   14 ar
  21   13   18 ar
  22   13   19 1
  23   14   15 ar
  24   14   31 1
  25   15   16 ar
  26   15   32 1
  27   16   17 ar
  28   17   18 ar
  29   17   33 1
  30   18   34 1
  31   19   20 ar
  32   19   24 ar
  33   20   21 ar
  34   20   25 1
  35   21   22 ar
  36   21   35 1
  37   22   23 ar
  38   22   36 1
  39   23   24 ar
  40   23   37 1
  41   24   38 1
  42   25   39 1

#	End of record

