#	Name: ASD01903171
#	Creating user name:	WinNT
#	Creation time:	15. 06. 2019 19:54

#	Modifying user name:	WinNT
#	Modification time:	15. 06. 2019 19:54

#	Program:	/corina/corina34_cracker 3.40 0067  02.08.2006

@<TRIPOS>MOLECULE
ASD01903171
  53   56    0    0    0
SMALL
NO_CHARGES


@<TRIPOS>ATOM
   1 C1             1.7354    -1.7060     2.0626 C.ar    
   2 C2             0.7269    -1.1750     1.2742 C.ar    
   3 C3             1.0007    -0.0840     0.4644 C.ar    
   4 N4             2.2016     0.4511     0.4355 N.ar    
   5 C5             3.1951    -0.0271     1.1749 C.ar    
   6 C6             2.9914    -1.1217     2.0119 C.ar    
   7 C7             4.5314     0.6087     1.1092 C.2     
   8 N8             4.7346     1.6681     0.3013 N.am    
   9 O9             5.4444     0.1751     1.7839 O.2     
  10 C10            5.9676     2.3276     0.3098 C.ar    
  11 C11            7.1414     1.6064     0.4868 C.ar    
  12 C12            8.3576     2.2608     0.4948 C.ar    
  13 C13            8.4075     3.6325     0.3269 C.ar    
  14 C14            7.2407     4.3535     0.1510 C.ar    
  15 C15            6.0217     3.7045     0.1358 C.ar    
  16 S16            9.9612     4.4635     0.3378 S.o2    
  17 O17            9.6929     5.8112     0.6996 O.2     
  18 O18           10.8575     3.6290     1.0585 O.2     
  19 N19           10.5091     4.4989    -1.2245 N.am    
  20 C20            9.7590     5.1438    -2.2147 C.ar    
  21 C21            9.7192     4.6275    -3.5081 C.ar    
  22 C22            8.9753     5.2698    -4.4840 C.ar    
  23 C23            8.2747     6.4211    -4.1740 C.ar    
  24 C24            8.3137     6.9341    -2.8907 C.ar    
  25 C25            9.0487     6.2956    -1.9096 C.ar    
  26 O26           10.4095     3.4956    -3.8118 O.3     
  27 C27           10.3223     3.0241    -5.1580 C.3     
  28 C28           11.1451     1.7702    -5.3053 C.ar    
  29 N29           11.2055     1.1640    -6.4747 N.ar    
  30 C30           11.9126     0.0647    -6.6504 C.ar    
  31 C31           12.6208    -0.4949    -5.6041 C.ar    
  32 C32           12.5814     0.1144    -4.3590 C.ar    
  33 C33           11.8323     1.2719    -4.2144 C.ar    
  34 H34            1.5459    -2.5531     2.7052 H       
  35 H35           -0.2627    -1.6073     1.2904 H       
  36 H36            0.2172     0.3321    -0.1515 H       
  37 H37            3.8007    -1.5098     2.6126 H       
  38 H38            4.0256     1.9731    -0.2862 H       
  39 H39            7.1031     0.5351     0.6183 H       
  40 H40            9.2706     1.7006     0.6326 H       
  41 H41            7.2831     5.4248     0.0205 H       
  42 H42            5.1108     4.2682    -0.0016 H       
  43 H43           11.3499     4.0727    -1.4534 H       
  44 H44            8.9427     4.8717    -5.4874 H       
  45 H45            7.6958     6.9210    -4.9365 H       
  46 H46            7.7649     7.8335    -2.6533 H       
  47 H47            9.0771     6.6983    -0.9079 H       
  48 H48            9.2821     2.8066    -5.4002 H       
  49 H49           10.7010     3.7889    -5.8360 H       
  50 H50           11.9381    -0.4038    -7.6231 H       
  51 H51           13.1975    -1.3957    -5.7540 H       
  52 H52           13.1247    -0.3006    -3.5230 H       
  53 H53           11.7794     1.7732    -3.2592 H       
@<TRIPOS>BOND
   1    1    2 ar
   2    1    6 ar
   3    1   34 1
   4    2    3 ar
   5    2   35 1
   6    3    4 ar
   7    3   36 1
   8    4    5 ar
   9    5    6 ar
  10    5    7 1
  11    6   37 1
  12    7    8 am
  13    7    9 2
  14    8   10 1
  15    8   38 1
  16   10   11 ar
  17   10   15 ar
  18   11   12 ar
  19   11   39 1
  20   12   13 ar
  21   12   40 1
  22   13   14 ar
  23   13   16 1
  24   14   15 ar
  25   14   41 1
  26   15   42 1
  27   16   17 2
  28   16   18 2
  29   16   19 am
  30   19   20 1
  31   19   43 1
  32   20   21 ar
  33   20   25 ar
  34   21   22 ar
  35   21   26 1
  36   22   23 ar
  37   22   44 1
  38   23   24 ar
  39   23   45 1
  40   24   25 ar
  41   24   46 1
  42   25   47 1
  43   26   27 1
  44   27   28 1
  45   27   48 1
  46   27   49 1
  47   28   29 ar
  48   28   33 ar
  49   29   30 ar
  50   30   31 ar
  51   30   50 1
  52   31   32 ar
  53   31   51 1
  54   32   33 ar
  55   32   52 1
  56   33   53 1

#	End of record

