#	Name: ASD02500906
#	Creating user name:	WinNT
#	Creation time:	15. 06. 2019 20:23

#	Modifying user name:	WinNT
#	Modification time:	15. 06. 2019 20:23

#	Program:	/corina/corina34_cracker 3.40 0067  02.08.2006

@<TRIPOS>MOLECULE
ASD02500906
  40   43    0    0    0
SMALL
NO_CHARGES


@<TRIPOS>ATOM
   1 C1            -0.0170     1.4039     0.0098 C.2     
   2 C2             0.0021    -0.0041     0.0020 C.2     
   3 C3            -1.2756    -0.7348     0.0127 C.ar    
   4 C4            -2.4434     0.0222    -0.2105 C.ar    
   5 O5            -2.3812     1.3521    -0.4531 O.3     
   6 C6            -1.3398     2.0750     0.0202 C.2     
   7 C7            -1.3496    -2.1052     0.2332 C.ar    
   8 C8            -2.5812    -2.7265     0.2437 C.ar    
   9 C9            -3.7346    -1.9855     0.0366 C.ar    
  10 C10           -3.6720    -0.6263    -0.1882 C.ar    
  11 C11            1.2453     1.9594     0.0007 C.2     
  12 C12            2.2477     1.0545    -0.0157 C.2     
  13 S13            1.5941    -0.5777    -0.0192 S.3     
  14 C14            3.6769     1.3858    -0.0286 C.2     
  15 N15            4.5968     0.4010    -0.0446 N.am    
  16 O16            4.0317     2.5498    -0.0249 O.2     
  17 O17           -1.4806     3.2101     0.4349 O.2     
  18 C18            6.0239     0.7318    -0.0575 C.3     
  19 C19           -2.6731    -4.2120     0.4799 C.3     
  20 C20            6.8396    -0.4294     0.5375 C.3     
  21 C21            7.7940    -0.9125    -0.5741 C.3     
  22 C22            7.9389     0.3134    -1.5096 C.3     
  23 C23            6.5111     0.9138    -1.5098 C.3     
  24 H24           -0.4493    -2.6795     0.3948 H       
  25 H25           -4.6949    -2.4794     0.0510 H       
  26 H26           -4.5805    -0.0642    -0.3467 H       
  27 H27            1.4174     3.0256     0.0058 H       
  28 H28            4.3140    -0.5269    -0.0475 H       
  29 H29            6.2008     1.6434     0.5134 H       
  30 H30           -2.7702    -4.4047     1.5483 H       
  31 H31           -3.5438    -4.6097    -0.0416 H       
  32 H32           -1.7719    -4.6962     0.1038 H       
  33 H33            7.4130    -0.0812     1.3966 H       
  34 H34            6.1737    -1.2391     0.8359 H       
  35 H35            8.7612    -1.1878    -0.1534 H       
  36 H36            7.3577    -1.7538    -1.1124 H       
  37 H37            8.6575     1.0258    -1.1044 H       
  38 H38            8.2268     0.0013    -2.5135 H       
  39 H39            5.8676     0.3674    -2.1994 H       
  40 H40            6.5420     1.9713    -1.7722 H       
@<TRIPOS>BOND
   1    1    2 2
   2    1   11 1
   3    1    6 1
   4    2    3 1
   5    2   13 1
   6    3    4 ar
   7    3    7 ar
   8    4    5 1
   9    4   10 ar
  10    5    6 1
  11    6   17 2
  12    7    8 ar
  13    7   24 1
  14    8    9 ar
  15    8   19 1
  16    9   10 ar
  17    9   25 1
  18   10   26 1
  19   11   12 2
  20   11   27 1
  21   12   13 1
  22   12   14 1
  23   14   15 am
  24   14   16 2
  25   15   18 1
  26   15   28 1
  27   18   20 1
  28   18   23 1
  29   18   29 1
  30   19   30 1
  31   19   31 1
  32   19   32 1
  33   20   21 1
  34   20   33 1
  35   20   34 1
  36   21   22 1
  37   21   35 1
  38   21   36 1
  39   22   23 1
  40   22   37 1
  41   22   38 1
  42   23   39 1
  43   23   40 1

#	End of record

