#	Name: ASD00170075
#	Creating user name:	WinNT
#	Creation time:	15. 06. 2019 18:31

#	Modifying user name:	WinNT
#	Modification time:	15. 06. 2019 18:31

#	Program:	/corina/corina34_cracker 3.40 0067  02.08.2006

@<TRIPOS>MOLECULE
ASD00170075
  44   47    0    0    0
SMALL
NO_CHARGES


@<TRIPOS>ATOM
   1 C1            -0.0959     1.1793     0.3191 C.2     
   2 C2             0.0009    -0.1538     0.2951 C.2     
   3 C3            -1.2919    -0.8033     0.4374 C.2     
   4 C4            -2.3315     0.0815     0.5698 C.2     
   5 S5            -1.7648     1.6860     0.5166 S.3     
   6 C6             1.0879     2.1209     0.1858 C.3     
   7 N7             2.3142     1.3158     0.2977 N.am    
   8 C8             2.3698     0.0409    -0.4338 C.3     
   9 C9             1.3139    -0.9048     0.1436 C.3     
  10 N10           -3.6551    -0.2791     0.7200 N.pl3   
  11 C11           -1.4665    -2.2554     0.4392 C.2     
  12 C12           -1.8034    -2.9614    -0.8163 C.ar    
  13 C13            3.3537     1.7331     1.0471 C.2     
  14 C14            3.3239     3.0726     1.6720 C.ar    
  15 C15            3.9766     3.2946     2.8856 C.ar    
  16 C16            3.9453     4.5471     3.4632 C.ar    
  17 C17            3.2684     5.5818     2.8423 C.ar    
  18 C18            2.6193     5.3685     1.6392 C.ar    
  19 C19            2.6477     4.1222     1.0481 C.ar    
  20 C20           -2.0846    -4.3284    -0.7979 C.ar    
  21 C21           -2.3980    -4.9809    -1.9723 C.ar    
  22 C22           -2.4340    -4.2832    -3.1666 C.ar    
  23 C23           -2.1563    -2.9279    -3.1917 C.ar    
  24 C24           -1.8470    -2.2623    -2.0235 C.ar    
  25 O25           -1.3345    -2.8832     1.4742 O.2     
  26 O26            4.3158     1.0081     1.2093 O.2     
  27 H27            1.0584     2.6164    -0.7846 H       
  28 H28            1.0601     2.8645     0.9823 H       
  29 H29            2.1647     0.2164    -1.4899 H       
  30 H30            3.3589    -0.4026    -0.3203 H       
  31 H31            1.6420    -1.2653     1.1186 H       
  32 H32            1.1745    -1.7501    -0.5303 H       
  33 H33           -3.9129    -1.2125     0.6641 H       
  34 H34           -4.3277     0.4010     0.8814 H       
  35 H35            4.5047     2.4876     3.3717 H       
  36 H36            4.4499     4.7202     4.4022 H       
  37 H37            3.2463     6.5603     3.2989 H       
  38 H38            2.0928     6.1804     1.1596 H       
  39 H39            2.1409     3.9571     0.1088 H       
  40 H40           -2.0565    -4.8742     0.1336 H       
  41 H41           -2.6155    -6.0387    -1.9595 H       
  42 H42           -2.6796    -4.7987    -4.0833 H       
  43 H43           -2.1857    -2.3891    -4.1272 H       
  44 H44           -1.6308    -1.2044    -2.0444 H       
@<TRIPOS>BOND
   1    1    2 2
   2    1    6 1
   3    1    5 1
   4    2    3 1
   5    2    9 1
   6    3    4 2
   7    3   11 1
   8    4    5 1
   9    4   10 1
  10    6    7 1
  11    6   27 1
  12    6   28 1
  13    7    8 1
  14    7   13 am
  15    8    9 1
  16    8   29 1
  17    8   30 1
  18    9   31 1
  19    9   32 1
  20   10   33 1
  21   10   34 1
  22   11   12 1
  23   11   25 2
  24   12   20 ar
  25   12   24 ar
  26   13   14 1
  27   13   26 2
  28   14   15 ar
  29   14   19 ar
  30   15   16 ar
  31   15   35 1
  32   16   17 ar
  33   16   36 1
  34   17   18 ar
  35   17   37 1
  36   18   19 ar
  37   18   38 1
  38   19   39 1
  39   20   21 ar
  40   20   40 1
  41   21   22 ar
  42   21   41 1
  43   22   23 ar
  44   22   42 1
  45   23   24 ar
  46   23   43 1
  47   24   44 1

#	End of record

