#	Name: ASD02500061
#	Creating user name:	WinNT
#	Creation time:	15. 06. 2019 20:22

#	Modifying user name:	WinNT
#	Modification time:	15. 06. 2019 20:22

#	Program:	/corina/corina34_cracker 3.40 0067  02.08.2006

@<TRIPOS>MOLECULE
ASD02500061
  89   91    0    0    0
SMALL
NO_CHARGES


@<TRIPOS>ATOM
   1 N1             1.2507     0.3695    -1.0446 N.ar    
   2 C2             1.5069    -0.9197    -1.1178 C.ar    
   3 N3             2.7298    -1.4065    -1.0122 N.ar    
   4 C4             3.7750    -0.6071    -0.8250 C.ar    
   5 C5             2.2325     1.2457    -0.8587 C.ar    
   6 N6             2.3034     2.6108    -0.7414 N.pl3   
   7 C7             3.5522     0.7776    -0.7407 C.ar    
   8 N8             4.3454     1.8611    -0.5613 N.2     
   9 C9             3.6145     2.9378    -0.5609 C.2     
  10 C10            1.1769     3.5455    -0.7994 C.3     
  11 C11            0.5093     3.6827     0.5927 C.3     
  12 C12           -0.1527     5.0790     0.4987 C.3     
  13 C13            0.6168     5.7864    -0.6336 C.3     
  14 O14            1.6402     4.8830    -1.0840 O.3     
  15 C15            1.2544     7.0727    -0.1047 C.3     
  16 O16            1.8664     7.7801    -1.1850 O.3     
  17 P17            2.6343     9.1820    -0.9919 P.3     
  18 O18            3.0809     9.7518    -2.4299 O.3     
  19 P19            3.5866    11.1868    -2.9564 P.3     
  20 O20            3.3816    11.2762    -4.5508 O.3     
  21 C21            3.6382    12.4637    -5.3031 C.3     
  22 C22            3.3425    12.2046    -6.7817 C.3     
  23 C23            3.6172    13.4760    -7.5872 C.3     
  24 C24            3.2771    13.2364    -9.0356 C.2     
  25 N25            2.2452    13.8920    -9.6029 N.am    
  26 C26            1.8476    13.5820   -10.9784 C.3     
  27 C27            0.6599    14.4606   -11.3764 C.3     
  28 C28            0.2510    14.1417   -12.7913 C.2     
  29 N29           -0.7809    14.7973   -13.3586 N.am    
  30 C30           -1.1784    14.4873   -14.7341 C.3     
  31 C31           -2.3661    15.3659   -15.1321 C.3     
  32 S32           -2.8572    14.9829   -16.8315 S.3     
  33 C33           -4.1643    16.0730   -17.0161 C.2     
  34 O34           -1.5359     4.9551     0.1619 O.3     
  35 O35           -0.4738     2.6644     0.7893 O.3     
  36 O36            1.7307    10.1531    -0.3354 O.2     
  37 O37            3.9385     8.9576    -0.0749 O.3     
  38 O38            2.8052    12.2573    -2.2977 O.2     
  39 O39            5.1473    11.3678    -2.6050 O.3     
  40 O40            2.8148    14.5440    -7.0798 O.3     
  41 O41            3.9319    12.4536    -9.6908 O.2     
  42 C42            4.2396    11.0745    -7.2908 C.3     
  43 C43            1.8750    11.8040    -6.9458 C.3     
  44 N44            5.0531    -1.1266    -0.7151 N.pl3   
  45 P45           -2.7194     5.5286     1.0907 P.3     
  46 O46           -2.5866     4.9750     2.4568 O.2     
  47 O47           -2.6240     7.1346     1.1507 O.3     
  48 O48           -4.1426     5.0981     0.4732 O.3     
  49 O49            0.8505    13.2951   -13.4196 O.2     
  50 O50           -4.4795    16.8030   -16.0997 O.2     
  51 C51           -4.9235    16.1258   -18.3168 C.3     
  52 H52            0.6861    -1.6050    -1.2694 H       
  53 H53            3.9911     3.9424    -0.4371 H       
  54 H54            0.4493     3.2222    -1.5438 H       
  55 H55            1.2561     3.6590     1.3863 H       
  56 H56           -0.0346     5.6211     1.4369 H       
  57 H57           -0.0616     6.0171    -1.4550 H       
  58 H58            0.4866     7.6983     0.3506 H       
  59 H59            2.0096     6.8240     0.6409 H       
  60 H60            2.9991    13.2688    -4.9404 H       
  61 H61            4.6836    12.7491    -5.1862 H       
  62 H62            4.6711    13.7405    -7.5004 H       
  63 H63            1.7657    14.5691    -9.1004 H       
  64 H64            2.6837    13.7751   -11.6505 H       
  65 H65            1.5619    12.5323   -11.0463 H       
  66 H66           -0.1762    14.2675   -10.7043 H       
  67 H67            0.9457    15.5103   -11.3085 H       
  68 H68           -1.2604    15.4744   -12.8561 H       
  69 H69           -0.3423    14.6805   -15.4063 H       
  70 H70           -1.4641    13.4376   -14.8020 H       
  71 H71           -3.2022    15.1728   -14.4600 H       
  72 H72           -2.0804    16.4156   -15.0643 H       
  73 H73           -0.1189     1.7652     0.7654 H       
  74 H74            4.5761     8.3316    -0.4444 H       
  75 H75            5.7205    10.6992    -3.0044 H       
  76 H76            1.8634    14.3772    -7.1257 H       
  77 H77            4.1580    10.2170    -6.6229 H       
  78 H78            3.9255    10.7851    -8.2936 H       
  79 H79            5.2742    11.4164    -7.3185 H       
  80 H80            1.2359    12.6091    -6.5831 H       
  81 H81            1.6643    11.6194    -7.9992 H       
  82 H82            1.6793    10.8982    -6.3719 H       
  83 H83            5.1940    -2.0845    -0.7746 H       
  84 H84            5.8079    -0.5329    -0.5786 H       
  85 H85           -2.7033     7.5658     0.2888 H       
  86 H86           -4.9029     5.4103     0.9827 H       
  87 H87           -4.4995    15.4038   -19.0146 H       
  88 H88           -5.9710    15.8845   -18.1362 H       
  89 H89           -4.8492    17.1274   -18.7405 H       
@<TRIPOS>BOND
   1    1    2 ar
   2    1    5 ar
   3    2    3 ar
   4    2   52 1
   5    3    4 ar
   6    4    7 ar
   7    4   44 1
   8    5    7 ar
   9    5    6 1
  10    6    9 1
  11    6   10 1
  12    7    8 1
  13    8    9 2
  14    9   53 1
  15   10   11 1
  16   10   14 1
  17   10   54 1
  18   11   12 1
  19   11   35 1
  20   11   55 1
  21   12   13 1
  22   12   34 1
  23   12   56 1
  24   13   14 1
  25   13   15 1
  26   13   57 1
  27   15   16 1
  28   15   58 1
  29   15   59 1
  30   16   17 1
  31   17   18 1
  32   17   36 2
  33   17   37 1
  34   18   19 1
  35   19   20 1
  36   19   38 2
  37   19   39 1
  38   20   21 1
  39   21   22 1
  40   21   60 1
  41   21   61 1
  42   22   23 1
  43   22   42 1
  44   22   43 1
  45   23   24 1
  46   23   40 1
  47   23   62 1
  48   24   25 am
  49   24   41 2
  50   25   26 1
  51   25   63 1
  52   26   27 1
  53   26   64 1
  54   26   65 1
  55   27   28 1
  56   27   66 1
  57   27   67 1
  58   28   29 am
  59   28   49 2
  60   29   30 1
  61   29   68 1
  62   30   31 1
  63   30   69 1
  64   30   70 1
  65   31   32 1
  66   31   71 1
  67   31   72 1
  68   32   33 1
  69   33   50 2
  70   33   51 1
  71   34   45 1
  72   35   73 1
  73   37   74 1
  74   39   75 1
  75   40   76 1
  76   42   77 1
  77   42   78 1
  78   42   79 1
  79   43   80 1
  80   43   81 1
  81   43   82 1
  82   44   83 1
  83   44   84 1
  84   45   46 2
  85   45   47 1
  86   45   48 1
  87   47   85 1
  88   48   86 1
  89   51   87 1
  90   51   88 1
  91   51   89 1

#	End of record

