#	Name: ASD01884760
#	Creating user name:	WinNT
#	Creation time:	15. 06. 2019 19:48

#	Modifying user name:	WinNT
#	Modification time:	15. 06. 2019 19:48

#	Program:	/corina/corina34_cracker 3.40 0067  02.08.2006

@<TRIPOS>MOLECULE
ASD01884760
  51   53    0    0    0
SMALL
NO_CHARGES


@<TRIPOS>ATOM
   1 C1            -0.0168     1.3885     0.0097 C.2     
   2 C2             0.0021    -0.0041     0.0020 C.2     
   3 C3            -1.2123    -0.6978     0.0104 C.2     
   4 C4            -2.3880    -0.0131     0.0257 C.2     
   5 N5            -2.4099     1.3439     0.0332 N.am    
   6 C6            -1.2679     2.0572     0.0312 C.2     
   7 O7            -1.3090     3.2759     0.0382 O.2     
   8 C8            -3.6967     2.0439     0.0498 C.3     
   9 C9             1.2064     2.1331     0.0020 C.1     
  10 N10            2.1767     2.7237    -0.0041 N.1     
  11 C11           -4.1304     2.2798     1.4980 C.3     
  12 C12           -5.4743     3.0108     1.5153 C.3     
  13 C13           -5.9681     3.1363     2.9579 C.3     
  14 C14           -5.3037     4.4062     0.9114 C.3     
  15 O15           -1.2181    -2.0587     0.0027 O.3     
  16 C16           -2.4940    -2.7022     0.0119 C.3     
  17 C17           -2.2999    -4.2198     0.0013 C.3     
  18 N18           -1.6445    -4.6384     1.2476 N.3     
  19 C19           -1.6541    -6.1127     1.3829 C.3     
  20 C20           -0.3747    -6.4647     2.1075 C.ar    
  21 C21            0.4858    -5.3837     2.0180 C.ar    
  22 C22           -0.2051    -4.2923     1.2323 C.3     
  23 C23            0.0171    -7.6054     2.7810 C.ar    
  24 C24            1.2701    -7.6679     3.3665 C.ar    
  25 C25            2.1299    -6.5861     3.2764 C.ar    
  26 C26            1.7366    -5.4458     2.6024 C.ar    
  27 F27            1.6534    -8.7831     4.0257 F       
  28 H28            0.9397    -0.5398    -0.0105 H       
  29 H29           -3.3199    -0.5589     0.0317 H       
  30 H30           -3.5958     3.0020    -0.4599 H       
  31 H31           -4.4462     1.4384    -0.4599 H       
  32 H32           -4.2313     1.3216     2.0077 H       
  33 H33           -3.3809     2.8853     2.0076 H       
  34 H34           -6.2016     2.4481     0.9300 H       
  35 H35           -5.2409     3.6991     3.5432 H       
  36 H36           -6.9256     3.6571     2.9703 H       
  37 H37           -6.0896     2.1422     3.3882 H       
  38 H38           -4.9520     4.3168    -0.1164 H       
  39 H39           -6.2612     4.9270     0.9237 H       
  40 H40           -4.5765     4.9690     1.4966 H       
  41 H41           -3.0407    -2.4121     0.9092 H       
  42 H42           -3.0587    -2.4019    -0.8707 H       
  43 H43           -3.2702    -4.7096    -0.0812 H       
  44 H44           -1.6777    -4.5006    -0.8484 H       
  45 H45           -2.5175    -6.4316     1.9668 H       
  46 H46           -1.6705    -6.5810     0.3988 H       
  47 H47            0.1666    -4.2730     0.2078 H       
  48 H48           -0.0451    -3.3256     1.7098 H       
  49 H49           -0.6543    -8.4484     2.8511 H       
  50 H50            3.1075    -6.6336     3.7331 H       
  51 H51            2.4073    -4.6022     2.5323 H       
@<TRIPOS>BOND
   1    1    2 2
   2    1    9 1
   3    1    6 1
   4    2    3 1
   5    2   28 1
   6    3    4 2
   7    3   15 1
   8    4    5 1
   9    4   29 1
  10    5    8 1
  11    5    6 am
  12    6    7 2
  13    8   11 1
  14    8   30 1
  15    8   31 1
  16    9   10 3
  17   11   12 1
  18   11   32 1
  19   11   33 1
  20   12   13 1
  21   12   14 1
  22   12   34 1
  23   13   35 1
  24   13   36 1
  25   13   37 1
  26   14   38 1
  27   14   39 1
  28   14   40 1
  29   15   16 1
  30   16   17 1
  31   16   41 1
  32   16   42 1
  33   17   18 1
  34   17   43 1
  35   17   44 1
  36   18   19 1
  37   18   22 1
  38   19   20 1
  39   19   45 1
  40   19   46 1
  41   20   21 ar
  42   20   23 ar
  43   21   22 1
  44   21   26 ar
  45   22   47 1
  46   22   48 1
  47   23   24 ar
  48   23   49 1
  49   24   25 ar
  50   24   27 1
  51   25   26 ar
  52   25   50 1
  53   26   51 1

#	End of record

