#	Name: ASD05430679
#	Creating user name:	WinNT
#	Creation time:	15. 06. 2019 21:00

#	Modifying user name:	WinNT
#	Modification time:	15. 06. 2019 21:00

#	Program:	/corina/corina34_cracker 3.40 0067  02.08.2006

@<TRIPOS>MOLECULE
ASD05430679
  29   30    0    0    0
SMALL
NO_CHARGES


@<TRIPOS>ATOM
   1 C1            -0.0187     1.5258     0.0104 C.3     
   2 C2            -0.0266    -0.0041    -0.0104 C.3     
   3 C3            -0.5979     2.0208     1.3372 C.3     
   4 C4             1.4180     2.0304    -0.1387 C.3     
   5 C5             0.8136    -0.5338     1.1544 C.3     
   6 C6            -1.4444    -0.5003     0.1197 C.ar    
   7 C7            -1.7603    -1.5760     0.9308 C.ar    
   8 O8            -0.8140    -2.2305     1.6529 O.3     
   9 C9             0.5539    -2.0397     1.2893 C.3     
  10 C10           -2.4432     0.1421    -0.5930 C.ar    
  11 C11           -3.7525    -0.2872    -0.4997 C.ar    
  12 C12           -4.0708    -1.3639     0.3076 C.ar    
  13 C13           -3.0801    -2.0075     1.0202 C.ar    
  14 H14           -0.6238     1.9035    -0.8137 H       
  15 H15            0.3954    -0.3562    -0.9517 H       
  16 H16            0.0072     1.6430     2.1613 H       
  17 H17           -0.5923     3.1106     1.3520 H       
  18 H18           -1.6215     1.6613     1.4434 H       
  19 H19            1.9991     1.7358     0.7352 H       
  20 H20            1.8639     1.5977    -1.0343 H       
  21 H21            1.4145     3.1171    -0.2232 H       
  22 H22            1.8707    -0.3597     0.9539 H       
  23 H23            0.5254    -0.0272     2.0755 H       
  24 H24            0.7531    -2.5329     0.3379 H       
  25 H25            1.2005    -2.4562     2.0617 H       
  26 H26           -2.1970     0.9830    -1.2244 H       
  27 H27           -4.5276     0.2180    -1.0568 H       
  28 H28           -5.0943    -1.7010     0.3800 H       
  29 H29           -3.3299    -2.8486     1.6500 H       
@<TRIPOS>BOND
   1    1    2 1
   2    1    3 1
   3    1    4 1
   4    1   14 1
   5    2    5 1
   6    2    6 1
   7    2   15 1
   8    3   16 1
   9    3   17 1
  10    3   18 1
  11    4   19 1
  12    4   20 1
  13    4   21 1
  14    5    9 1
  15    5   22 1
  16    5   23 1
  17    6    7 ar
  18    6   10 ar
  19    7    8 1
  20    7   13 ar
  21    8    9 1
  22    9   24 1
  23    9   25 1
  24   10   11 ar
  25   10   26 1
  26   11   12 ar
  27   11   27 1
  28   12   13 ar
  29   12   28 1
  30   13   29 1

#	End of record

