#	Name: ASD01231362
#	Creating user name:	WinNT
#	Creation time:	15. 06. 2019 19:15

#	Modifying user name:	WinNT
#	Modification time:	15. 06. 2019 19:15

#	Program:	/corina/corina34_cracker 3.40 0067  02.08.2006

@<TRIPOS>MOLECULE
ASD01231362
  51   54    0    0    0
SMALL
NO_CHARGES


@<TRIPOS>ATOM
   1 O1            -0.0161     1.3388     0.0094 O.3     
   2 C2             0.0021    -0.0041     0.0020 C.2     
   3 C3             1.2839    -0.4117    -0.0124 C.2     
   4 C4             2.0843     0.7537    -0.0138 C.2     
   5 C5             1.2438     1.8038    -0.0001 C.2     
   6 S6            -1.4130    -1.0539     0.0104 S.o2    
   7 O7            -2.4851    -0.2865    -0.5198 O.2     
   8 O8            -0.9960    -2.2939    -0.5443 O.2     
   9 N9            -1.7914    -1.3538     1.5944 N.am    
  10 C10           -2.2310    -0.2587     2.4626 C.3     
  11 C11           -3.2876    -0.7635     3.4681 C.3     
  12 C12           -2.4257    -1.1472     4.6897 C.3     
  13 C13           -1.1905    -0.2776     4.5918 C.ar    
  14 C14           -0.2397     0.0417     5.5469 C.ar    
  15 C15            0.8189     0.8679     5.2246 C.ar    
  16 C16            0.9308     1.3785     3.9447 C.ar    
  17 C17           -0.0163     1.0613     2.9910 C.ar    
  18 C18           -1.0787     0.2328     3.3122 C.ar    
  19 C19            1.8508     1.2131     6.2672 C.3     
  20 C20            2.9618     0.1955     6.2305 C.ar    
  21 C21            4.0576     0.3977     5.4121 C.ar    
  22 C22            5.0765    -0.5355     5.3783 C.ar    
  23 C23            5.0002    -1.6710     6.1634 C.ar    
  24 C24            3.9052    -1.8727     6.9823 C.ar    
  25 C25            2.8880    -0.9371     7.0192 C.ar    
  26 C26            3.8218    -3.1106     7.8376 C.3     
  27 F27            4.9605    -3.8970     7.6322 F       
  28 F28            3.7464    -2.7422     9.1851 F       
  29 F29            2.6810    -3.8419     7.4896 F       
  30 C30            6.2705    -0.3156     4.4855 C.3     
  31 O31            7.2757     0.4033     5.2028 O.3     
  32 H32            1.6343    -1.4332    -0.0207 H       
  33 H33            3.1636     0.7932    -0.0236 H       
  34 H34            1.5330     2.8444     0.0027 H       
  35 H35           -1.7221    -2.2547     1.9474 H       
  36 H36           -2.6371     0.5573     1.8649 H       
  37 H37           -3.9898     0.0301     3.7233 H       
  38 H38           -3.8118    -1.6345     3.0748 H       
  39 H39           -2.9642    -0.9367     5.6137 H       
  40 H40           -2.1510    -2.2010     4.6427 H       
  41 H41           -0.3266    -0.3565     6.5470 H       
  42 H42            1.7578     2.0251     3.6911 H       
  43 H43            0.0717     1.4605     1.9913 H       
  44 H44            2.2579     2.2031     6.0617 H       
  45 H45            1.3865     1.2086     7.2534 H       
  46 H46            4.1172     1.2847     4.7988 H       
  47 H47            5.7961    -2.4006     6.1365 H       
  48 H48            2.0341    -1.0928     7.6619 H       
  49 H49            6.6694    -1.2792     4.1684 H       
  50 H50            5.9683     0.2586     3.6096 H       
  51 H51            8.0751     0.5808     4.6884 H       
@<TRIPOS>BOND
   1    1    2 1
   2    1    5 1
   3    2    3 2
   4    2    6 1
   5    3    4 1
   6    3   32 1
   7    4    5 2
   8    4   33 1
   9    5   34 1
  10    6    7 2
  11    6    8 2
  12    6    9 am
  13    9   10 1
  14    9   35 1
  15   10   11 1
  16   10   18 1
  17   10   36 1
  18   11   12 1
  19   11   37 1
  20   11   38 1
  21   12   13 1
  22   12   39 1
  23   12   40 1
  24   13   14 ar
  25   13   18 ar
  26   14   15 ar
  27   14   41 1
  28   15   16 ar
  29   15   19 1
  30   16   17 ar
  31   16   42 1
  32   17   18 ar
  33   17   43 1
  34   19   20 1
  35   19   44 1
  36   19   45 1
  37   20   21 ar
  38   20   25 ar
  39   21   22 ar
  40   21   46 1
  41   22   23 ar
  42   22   30 1
  43   23   24 ar
  44   23   47 1
  45   24   25 ar
  46   24   26 1
  47   25   48 1
  48   26   27 1
  49   26   28 1
  50   26   29 1
  51   30   31 1
  52   30   49 1
  53   30   50 1
  54   31   51 1

#	End of record

