#	Name: ASD08070322
#	Creating user name:	WinNT
#	Creation time:	15. 06. 2019 21:14

#	Modifying user name:	WinNT
#	Modification time:	15. 06. 2019 21:14

#	Program:	/corina/corina34_cracker 3.40 0067  02.08.2006

@<TRIPOS>MOLECULE
ASD08070322
  40   41    0    0    0
SMALL
NO_CHARGES


@<TRIPOS>ATOM
   1 N1            -0.0162     1.3436     0.0094 N.am    
   2 C2             0.0561     0.0126     0.2090 C.2     
   3 O3             1.1400    -0.5295     0.3070 O.2     
   4 N4            -1.0732    -0.7175     0.2999 N.am    
   5 C5            -0.9946    -2.1642     0.5168 C.3     
   6 C6            -2.4075    -2.7477     0.5814 C.3     
   7 C7            -2.3267    -4.2359     0.8046 C.ar    
   8 C8            -2.9937    -4.8035     1.8740 C.ar    
   9 C9            -2.9133    -6.1735     2.0700 C.ar    
  10 C10           -2.1616    -6.9247     1.1792 C.ar    
  11 C11           -1.5222    -6.2874     0.1330 C.ar    
  12 N12           -1.6250    -4.9821    -0.0257 N.ar    
  13 C13            1.1525     2.1171     0.0123 C.ar    
  14 C14            2.3306     1.5973    -0.5068 C.ar    
  15 C15            3.4818     2.3600    -0.5036 C.ar    
  16 C16            3.4615     3.6449     0.0186 C.ar    
  17 C17            2.2848     4.1648     0.5375 C.ar    
  18 C18            1.1313     3.4054     0.5293 C.ar    
  19 O19            4.5956     4.3951     0.0223 O.3     
  20 C20            4.5024     5.7093     0.5755 C.3     
  21 C21            5.8674     6.3955     0.4928 C.3     
  22 H22           -0.8767     1.7655    -0.1402 H       
  23 H23           -1.9379    -0.2850     0.2217 H       
  24 H24           -0.4481    -2.6258    -0.3056 H       
  25 H25           -0.4761    -2.3633     1.4547 H       
  26 H26           -2.9540    -2.2861     1.4039 H       
  27 H27           -2.9261    -2.5485    -0.3564 H       
  28 H28           -3.5699    -4.1875     2.5484 H       
  29 H29           -3.4236    -6.6445     2.8972 H       
  30 H30           -2.0767    -7.9944     1.3017 H       
  31 H31           -0.9349    -6.8653    -0.5651 H       
  32 H32            2.3467     0.5967    -0.9128 H       
  33 H33            4.3983     1.9558    -0.9075 H       
  34 H34            2.2696     5.1653     0.9440 H       
  35 H35            0.2142     3.8119     0.9292 H       
  36 H36            3.7698     6.2889     0.0138 H       
  37 H37            4.1914     5.6435     1.6181 H       
  38 H38            6.6000     5.8160     1.0545 H       
  39 H39            6.1783     6.4614    -0.5498 H       
  40 H40            5.7962     7.3980     0.9148 H       
@<TRIPOS>BOND
   1    1    2 am
   2    1   13 1
   3    1   22 1
   4    2    3 2
   5    2    4 am
   6    4    5 1
   7    4   23 1
   8    5    6 1
   9    5   24 1
  10    5   25 1
  11    6    7 1
  12    6   26 1
  13    6   27 1
  14    7    8 ar
  15    7   12 ar
  16    8    9 ar
  17    8   28 1
  18    9   10 ar
  19    9   29 1
  20   10   11 ar
  21   10   30 1
  22   11   12 ar
  23   11   31 1
  24   13   14 ar
  25   13   18 ar
  26   14   15 ar
  27   14   32 1
  28   15   16 ar
  29   15   33 1
  30   16   17 ar
  31   16   19 1
  32   17   18 ar
  33   17   34 1
  34   18   35 1
  35   19   20 1
  36   20   21 1
  37   20   36 1
  38   20   37 1
  39   21   38 1
  40   21   39 1
  41   21   40 1

#	End of record

