#	Name: ASD02408157
#	Creating user name:	WinNT
#	Creation time:	15. 06. 2019 20:21

#	Modifying user name:	WinNT
#	Modification time:	15. 06. 2019 20:21

#	Program:	/corina/corina34_cracker 3.40 0067  02.08.2006

@<TRIPOS>MOLECULE
ASD02408157
  44   46    0    0    0
SMALL
NO_CHARGES


@<TRIPOS>ATOM
   1 O1            -0.0741     2.3757    -0.4064 O.3     
   2 C2             0.2122     1.0622    -0.2075 C.ar    
   3 C3             1.5297     0.6285    -0.2214 C.ar    
   4 C4            -0.8125     0.1536     0.0155 C.ar    
   5 C5            -0.5188    -1.1808     0.2178 C.ar    
   6 C6             0.7951    -1.6115     0.1983 C.ar    
   7 C7             1.8182    -0.7074    -0.0185 C.ar    
   8 C8            -2.2446     0.6223     0.0373 C.3     
   9 C9            -2.7816     0.6624    -1.3702 C.2     
  10 N10           -4.0537     1.0577    -1.5707 N.am    
  11 N11           -1.9970     0.3180    -2.3549 N.2     
  12 C12           -2.4196     0.3346    -3.6255 C.2     
  13 C13           -3.7374     0.7317    -3.9061 C.2     
  14 C14           -4.5671     1.1059    -2.8180 C.2     
  15 N15           -1.5736    -0.0321    -4.6432 N.pl3   
  16 C16           -1.5680     0.7048    -5.9143 C.3     
  17 O17           -5.7188     1.4586    -3.0047 O.2     
  18 C18            1.0312     3.2549    -0.6239 C.3     
  19 C19           -0.1343     1.1493    -6.2203 C.3     
  20 C20            0.7897    -0.0705    -6.1969 C.3     
  21 C21            0.7670    -0.7030    -4.8035 C.3     
  22 C22           -0.6525    -1.1650    -4.4794 C.3     
  23 C23           -4.2273     0.7630    -5.2514 C.1     
  24 N24           -4.6159     0.7879    -6.3185 N.1     
  25 H25            2.3293     1.3344    -0.3910 H       
  26 H26           -1.3160    -1.8884     0.3918 H       
  27 H27            1.0227    -2.6553     0.3567 H       
  28 H28            2.8436    -1.0462    -0.0332 H       
  29 H29           -2.8429    -0.0653     0.6351 H       
  30 H30           -2.2937     1.6201     0.4735 H       
  31 H31           -4.6048     1.3092    -0.8132 H       
  32 H32           -1.9283     0.0572    -6.7137 H       
  33 H33           -2.2123     1.5801    -5.8320 H       
  34 H34            0.6642     4.2711    -0.7683 H       
  35 H35            1.6932     3.2273     0.2416 H       
  36 H36            1.5792     2.9371    -1.5109 H       
  37 H37           -0.0998     1.6130    -7.2061 H       
  38 H38            0.1922     1.8675    -5.4682 H       
  39 H39            0.4479    -0.7991    -6.9320 H       
  40 H40            1.8063     0.2394    -6.4385 H       
  41 H41            1.4432    -1.5577    -4.7809 H       
  42 H42            1.0851     0.0327    -4.0648 H       
  43 H43           -0.6938    -1.5254    -3.4516 H       
  44 H44           -0.9410    -1.9651    -5.1612 H       
@<TRIPOS>BOND
   1    1    2 1
   2    1   18 1
   3    2    3 ar
   4    2    4 ar
   5    3    7 ar
   6    3   25 1
   7    4    5 ar
   8    4    8 1
   9    5    6 ar
  10    5   26 1
  11    6    7 ar
  12    6   27 1
  13    7   28 1
  14    8    9 1
  15    8   29 1
  16    8   30 1
  17    9   10 1
  18    9   11 2
  19   10   14 am
  20   10   31 1
  21   11   12 1
  22   12   13 2
  23   12   15 1
  24   13   14 1
  25   13   23 1
  26   14   17 2
  27   15   16 1
  28   15   22 1
  29   16   19 1
  30   16   32 1
  31   16   33 1
  32   18   34 1
  33   18   35 1
  34   18   36 1
  35   19   20 1
  36   19   37 1
  37   19   38 1
  38   20   21 1
  39   20   39 1
  40   20   40 1
  41   21   22 1
  42   21   41 1
  43   21   42 1
  44   22   43 1
  45   22   44 1
  46   23   24 3

#	End of record

