#	Name: ASD02398038
#	Creating user name:	WinNT
#	Creation time:	15. 06. 2019 20:20

#	Modifying user name:	WinNT
#	Modification time:	15. 06. 2019 20:20

#	Program:	/corina/corina34_cracker 3.40 0067  02.08.2006

@<TRIPOS>MOLECULE
ASD02398038
  66   69    0    0    0
SMALL
NO_CHARGES


@<TRIPOS>ATOM
   1 C1            -0.2293     1.4609    -0.0090 C.ar    
   2 C2             0.0149     0.0870    -0.1000 C.ar    
   3 C3            -1.0513    -0.8078    -0.0555 C.ar    
   4 C4            -2.3416    -0.3357     0.0779 C.ar    
   5 C5            -2.5802     1.0241     0.1677 C.ar    
   6 C6            -1.5288     1.9206     0.1299 C.ar    
   7 C7            -3.4946    -1.3049     0.1254 C.3     
   8 C8            -3.6872    -1.7875     1.5400 C.2     
   9 O9            -2.9069    -1.4589     2.4019 O.2     
  10 O10           -4.7257    -2.5824     1.8424 O.3     
  11 C11            1.4033    -0.4150    -0.2437 C.ar    
  12 C12            2.3112    -0.2709     0.8041 C.ar    
  13 C13            1.8031    -1.0375    -1.4245 C.ar    
  14 C14            3.0962    -1.5031    -1.5526 C.ar    
  15 C15            3.9943    -1.3527    -0.5116 C.ar    
  16 C16            3.6014    -0.7402     0.6650 C.ar    
  17 C17            1.8847     0.3965     2.0861 C.3     
  18 N18            2.9639     0.2955     3.0717 N.am    
  19 C19            4.0096     1.1277     3.1703 C.2     
  20 O20            4.8568     0.8173     4.1580 O.3     
  21 C21            4.3771    -0.3690     4.8546 C.3     
  22 C22            3.0730    -0.7322     4.1184 C.3     
  23 O23            4.1735     2.0772     2.4300 O.2     
  24 C24            3.1809    -2.1221     3.4880 C.3     
  25 C25            5.3803    -1.4882     4.7446 C.ar    
  26 C26            5.5027    -2.4098     5.7675 C.ar    
  27 C27            6.1743    -1.5963     3.6182 C.ar    
  28 C28            7.0946    -2.6228     3.5172 C.ar    
  29 C29            7.2212    -3.5410     4.5428 C.ar    
  30 C30            6.4230    -3.4363     5.6666 C.ar    
  31 C31           -4.9147    -2.9158     3.2429 C.3     
  32 O32            0.8044     2.3412    -0.0510 O.3     
  33 C33           -0.1589     3.9833    -1.8842 C.3     
  34 F34           -0.1653     5.0374    -0.9644 F       
  35 F35           -1.3942     3.3275    -1.8504 F       
  36 F36            0.0665     4.4874    -3.1696 F       
  37 S37            1.1589     2.8133    -1.4538 S.o2    
  38 O38            2.3962     3.4932    -1.2926 O.2     
  39 O39            1.0655     1.6414    -2.2520 O.2     
  40 C40            5.4046    -1.8636    -0.6573 C.3     
  41 F41            5.5623    -2.4439    -1.9204 F       
  42 F42            6.3027    -0.8001    -0.5173 F       
  43 F43            5.6581    -2.8211     0.3308 F       
  44 H44           -0.8688    -1.8700    -0.1257 H       
  45 H45           -3.5922     1.3865     0.2719 H       
  46 H46           -1.7212     2.9810     0.2004 H       
  47 H47           -4.4023    -0.8069    -0.2154 H       
  48 H48           -3.2815    -2.1551    -0.5227 H       
  49 H49            1.1025    -1.1557    -2.2379 H       
  50 H50            3.4071    -1.9860    -2.4672 H       
  51 H51            4.3068    -0.6254     1.4746 H       
  52 H52            1.6657     1.4468     1.8936 H       
  53 H53            0.9924    -0.0958     2.4727 H       
  54 H54            4.1709    -0.1409     5.9004 H       
  55 H55            2.2230    -0.6842     4.7990 H       
  56 H56            3.4009    -2.8564     4.2630 H       
  57 H57            2.2376    -2.3758     3.0043 H       
  58 H58            3.9810    -2.1242     2.7478 H       
  59 H59            4.8795    -2.3277     6.6458 H       
  60 H60            6.0754    -0.8790     2.8169 H       
  61 H61            7.7144    -2.7077     2.6369 H       
  62 H62            7.9400    -4.3432     4.4638 H       
  63 H63            6.5219    -4.1537     6.4679 H       
  64 H64           -5.7331    -3.6293     3.3393 H       
  65 H65           -3.9996    -3.3568     3.6381 H       
  66 H66           -5.1534    -2.0114     3.8027 H       
@<TRIPOS>BOND
   1    1    2 ar
   2    1   32 1
   3    1    6 ar
   4    2    3 ar
   5    2   11 1
   6    3    4 ar
   7    3   44 1
   8    4    5 ar
   9    4    7 1
  10    5    6 ar
  11    5   45 1
  12    6   46 1
  13    7    8 1
  14    7   47 1
  15    7   48 1
  16    8    9 2
  17    8   10 1
  18   10   31 1
  19   11   12 ar
  20   11   13 ar
  21   12   17 1
  22   12   16 ar
  23   13   14 ar
  24   13   49 1
  25   14   15 ar
  26   14   50 1
  27   15   16 ar
  28   15   40 1
  29   16   51 1
  30   17   18 1
  31   17   52 1
  32   17   53 1
  33   18   19 am
  34   18   22 1
  35   19   20 1
  36   19   23 2
  37   20   21 1
  38   21   22 1
  39   21   25 1
  40   21   54 1
  41   22   24 1
  42   22   55 1
  43   24   56 1
  44   24   57 1
  45   24   58 1
  46   25   26 ar
  47   25   27 ar
  48   26   30 ar
  49   26   59 1
  50   27   28 ar
  51   27   60 1
  52   28   29 ar
  53   28   61 1
  54   29   30 ar
  55   29   62 1
  56   30   63 1
  57   31   64 1
  58   31   65 1
  59   31   66 1
  60   32   37 1
  61   33   34 1
  62   33   35 1
  63   33   36 1
  64   33   37 1
  65   37   38 2
  66   37   39 2
  67   40   41 1
  68   40   42 1
  69   40   43 1

#	End of record

