#	Name: ASD02030015
#	Creating user name:	WinNT
#	Creation time:	15. 06. 2019 20:14

#	Modifying user name:	WinNT
#	Modification time:	15. 06. 2019 20:14

#	Program:	/corina/corina34_cracker 3.40 0067  02.08.2006

@<TRIPOS>MOLECULE
ASD02030015
  51   53    0    0    0
SMALL
NO_CHARGES


@<TRIPOS>ATOM
   1 C1            -0.6338     1.2756     0.0251 C.3     
   2 C2            -0.3748    -0.2326     0.0069 C.3     
   3 N3             0.4051    -0.5822    -1.1872 N.3     
   4 C4             1.7145     0.0825    -1.1797 C.3     
   5 C5             1.5177     1.6001    -1.1970 C.3     
   6 C6             0.7050     2.0185     0.0314 C.3     
   7 C7             0.4530     3.5270    -0.0118 C.3     
   8 C8            -0.2392     3.9571     1.2558 C.ar    
   9 C9             0.5065     4.3469     2.3525 C.ar    
  10 C10           -0.1284     4.7414     3.5153 C.ar    
  11 C11           -1.5092     4.7467     3.5812 C.ar    
  12 C12           -2.2550     4.3578     2.4842 C.ar    
  13 C13           -1.6201     3.9674     1.3200 C.ar    
  14 C14            0.5546    -2.0383    -1.3106 C.3     
  15 C15            1.1466    -2.3760    -2.6805 C.3     
  16 C16            1.4878    -2.5502    -0.2116 C.3     
  17 C17            1.1593    -3.8713    -2.8675 C.ar    
  18 O18            0.3515    -1.7746    -3.7043 O.3     
  19 C19            2.2976    -4.5951    -2.5641 C.ar    
  20 C20            2.3117    -5.9659    -2.7347 C.ar    
  21 C21            1.1826    -6.6162    -3.2109 C.ar    
  22 C22            0.0417    -5.8876    -3.5146 C.ar    
  23 C23            0.0307    -4.5177    -3.3369 C.ar    
  24 O24            1.1941    -7.9646    -3.3800 O.3     
  25 H25           -1.2025     1.5579    -0.8610 H       
  26 H26           -1.1993     1.5370     0.9196 H       
  27 H27            0.1819    -0.5162     0.9001 H       
  28 H28           -1.3261    -0.7643    -0.0120 H       
  29 H29            2.2613    -0.2026    -0.2810 H       
  30 H30            2.2806    -0.2204    -2.0606 H       
  31 H31            2.4896     2.0933    -1.1756 H       
  32 H32            0.9830     1.8874    -2.1023 H       
  33 H33            1.2573     1.7663     0.9367 H       
  34 H34            1.4040     4.0518    -0.1025 H       
  35 H35           -0.1769     3.7657    -0.8688 H       
  36 H36            1.5853     4.3428     2.3010 H       
  37 H37            0.4543     5.0453     4.3723 H       
  38 H38           -2.0053     5.0543     4.4899 H       
  39 H39           -3.3338     4.3616     2.5358 H       
  40 H40           -2.2027     3.6636     0.4629 H       
  41 H41           -0.4211    -2.5136    -1.2093 H       
  42 H42            2.1656    -1.9937    -2.7401 H       
  43 H43            1.0661    -2.3096     0.7643 H       
  44 H44            1.5987    -3.6306    -0.3031 H       
  45 H45            2.4635    -2.0749    -0.3129 H       
  46 H46           -0.5688    -2.0715    -3.7131 H       
  47 H47            3.1764    -4.0884    -2.1938 H       
  48 H48            3.2012    -6.5308    -2.4979 H       
  49 H49           -0.8386    -6.3916    -3.8854 H       
  50 H50           -0.8572    -3.9500    -3.5732 H       
  51 H51            0.9094    -8.4612    -2.6006 H       
@<TRIPOS>BOND
   1    1    2 1
   2    1    6 1
   3    1   25 1
   4    1   26 1
   5    2    3 1
   6    2   27 1
   7    2   28 1
   8    3    4 1
   9    3   14 1
  10    4    5 1
  11    4   29 1
  12    4   30 1
  13    5    6 1
  14    5   31 1
  15    5   32 1
  16    6    7 1
  17    6   33 1
  18    7    8 1
  19    7   34 1
  20    7   35 1
  21    8    9 ar
  22    8   13 ar
  23    9   10 ar
  24    9   36 1
  25   10   11 ar
  26   10   37 1
  27   11   12 ar
  28   11   38 1
  29   12   13 ar
  30   12   39 1
  31   13   40 1
  32   14   15 1
  33   14   16 1
  34   14   41 1
  35   15   17 1
  36   15   18 1
  37   15   42 1
  38   16   43 1
  39   16   44 1
  40   16   45 1
  41   17   19 ar
  42   17   23 ar
  43   18   46 1
  44   19   20 ar
  45   19   47 1
  46   20   21 ar
  47   20   48 1
  48   21   22 ar
  49   21   24 1
  50   22   23 ar
  51   22   49 1
  52   23   50 1
  53   24   51 1

#	End of record

