#	Name: ASD00431041
#	Creating user name:	WinNT
#	Creation time:	15. 06. 2019 18:35

#	Modifying user name:	WinNT
#	Modification time:	15. 06. 2019 18:35

#	Program:	/corina/corina34_cracker 3.40 0067  02.08.2006

@<TRIPOS>MOLECULE
ASD00431041
  74   78    0    0    0
SMALL
NO_CHARGES


@<TRIPOS>ATOM
   1 C1            -0.7848     1.1293     0.3071 C.2     
   2 C2            -1.0946    -0.3398     0.5329 C.3     
   3 C3            -2.4591    -0.3110     1.2595 C.3     
   4 C4            -2.9435     1.1071     1.0670 C.2     
   5 N5            -1.9913     1.8230     0.4614 N.am    
   6 C6            -3.4309    -1.3022     0.6160 C.3     
   7 O7            -4.0278     1.5298     1.4085 O.2     
   8 C8            -4.7190    -1.3222     1.3979 C.2     
   9 N9            -5.7287    -2.1277     1.0128 N.am    
  10 O10           -4.8472    -0.6135     2.3737 O.2     
  11 C11           -2.1905     3.2003     0.0034 C.3     
  12 C12           -2.8659     3.1889    -1.3437 C.ar    
  13 C13           -4.2400     3.3143    -1.4289 C.ar    
  14 C14           -2.1102     3.0588    -2.4951 C.ar    
  15 C15           -2.7304     3.0484    -3.7318 C.ar    
  16 C16           -4.1058     3.1681    -3.8161 C.ar    
  17 C17           -4.8601     3.3040    -2.6640 C.ar    
  18 Cl18          -0.3840     2.9090    -2.3884 Cl      
  19 Cl19          -4.8848     3.1557    -5.3674 Cl      
  20 C20           -6.9905    -2.1576     1.7656 C.3     
  21 C21           -5.5897    -2.9873    -0.1711 C.3     
  22 C22           -6.7466    -2.6880    -1.1326 C.3     
  23 N23           -8.0064    -2.7221    -0.3764 N.am    
  24 C24           -8.1444    -1.8601     0.8001 C.3     
  25 C25           -9.0163    -3.5269    -0.7621 C.2     
  26 O26          -10.0856    -3.4817    -0.1828 O.2     
  27 C27           -8.8267    -4.4572    -1.8799 C.2     
  28 C28           -9.7099    -5.4172    -2.2835 C.2     
  29 C29           -9.1248    -6.0681    -3.3809 C.2     
  30 C30           -7.9253    -5.4843    -3.5963 C.2     
  31 O31           -7.7516    -4.5106    -2.6932 O.3     
  32 C32            0.3305     1.6740    -0.0164 C.2     
  33 C33            1.7201     1.1763    -0.1794 C.3     
  34 C34            2.0937     0.2121     0.9300 C.3     
  35 C35            1.2984    -1.0643     0.8792 C.3     
  36 C36           -0.0660    -0.9851     1.4461 C.3     
  37 C37           -1.1929    -1.0796    -0.7763 C.2     
  38 O38           -1.1594    -0.4696    -1.8188 O.2     
  39 O39           -1.3175    -2.4160    -0.7844 O.3     
  40 C40           -1.5433    -4.5738    -1.8904 C.3     
  41 C41           -1.4068    -3.0620    -2.0818 C.3     
  42 H42           -2.3326    -0.5313     2.3195 H       
  43 H43           -3.6338    -0.9976    -0.4107 H       
  44 H44           -2.9887    -2.2984     0.6188 H       
  45 H45           -2.8158     3.7343     0.7189 H       
  46 H46           -1.2248     3.6992    -0.0785 H       
  47 H47           -4.8292     3.4200    -0.5300 H       
  48 H48           -2.1409     2.9471    -4.6310 H       
  49 H49           -5.9340     3.3975    -2.7297 H       
  50 H50           -7.1290    -3.1440     2.2084 H       
  51 H51           -6.9661    -1.4017     2.5506 H       
  52 H52           -4.6405    -2.7792    -0.6650 H       
  53 H53           -5.6262    -4.0341     0.1305 H       
  54 H54           -6.6105    -1.7000    -1.5723 H       
  55 H55           -6.7721    -3.4413    -1.9200 H       
  56 H56           -9.0927    -2.0671     1.2961 H       
  57 H57           -8.1095    -0.8146     0.4938 H       
  58 H58          -10.6720    -5.6339    -1.8434 H       
  59 H59           -9.5528    -6.8823    -3.9467 H       
  60 H60           -7.2238    -5.7557    -4.3713 H       
  61 H61            0.2383     2.7315    -0.2150 H       
  62 H62            1.8065     0.6668    -1.1391 H       
  63 H63            2.4066     2.0227    -0.1628 H       
  64 H64            3.1532    -0.0294     0.8449 H       
  65 H65            1.9211     0.6967     1.8910 H       
  66 H66            1.2125    -1.3737    -0.1624 H       
  67 H67            1.8515    -1.8347     1.4166 H       
  68 H68           -0.0269    -0.4031     2.3669 H       
  69 H69           -0.4008    -1.9935     1.6894 H       
  70 H70           -2.4444    -4.7873    -1.3155 H       
  71 H71           -1.6103    -5.0587    -2.8644 H       
  72 H72           -0.6725    -4.9524    -1.3552 H       
  73 H73           -2.2775    -2.6833    -2.6170 H       
  74 H74           -0.5057    -2.8484    -2.6567 H       
@<TRIPOS>BOND
   1    1    2 1
   2    1   32 2
   3    1    5 1
   4    2   37 1
   5    2    3 1
   6    2   36 1
   7    3    4 1
   8    3    6 1
   9    3   42 1
  10    4    5 am
  11    4    7 2
  12    5   11 1
  13    6    8 1
  14    6   43 1
  15    6   44 1
  16    8    9 am
  17    8   10 2
  18    9   20 1
  19    9   21 1
  20   11   12 1
  21   11   45 1
  22   11   46 1
  23   12   13 ar
  24   12   14 ar
  25   13   17 ar
  26   13   47 1
  27   14   15 ar
  28   14   18 1
  29   15   16 ar
  30   15   48 1
  31   16   17 ar
  32   16   19 1
  33   17   49 1
  34   20   24 1
  35   20   50 1
  36   20   51 1
  37   21   22 1
  38   21   52 1
  39   21   53 1
  40   22   23 1
  41   22   54 1
  42   22   55 1
  43   23   24 1
  44   23   25 am
  45   24   56 1
  46   24   57 1
  47   25   27 1
  48   25   26 2
  49   27   28 2
  50   27   31 1
  51   28   29 1
  52   28   58 1
  53   29   30 2
  54   29   59 1
  55   30   31 1
  56   30   60 1
  57   32   33 1
  58   32   61 1
  59   33   34 1
  60   33   62 1
  61   33   63 1
  62   34   35 1
  63   34   64 1
  64   34   65 1
  65   35   36 1
  66   35   66 1
  67   35   67 1
  68   36   68 1
  69   36   69 1
  70   37   38 2
  71   37   39 1
  72   39   41 1
  73   40   41 1
  74   40   70 1
  75   40   71 1
  76   40   72 1
  77   41   73 1
  78   41   74 1

#	End of record

