#	Name: ASD01948019
#	Creating user name:	WinNT
#	Creation time:	15. 06. 2019 20:13

#	Modifying user name:	WinNT
#	Modification time:	15. 06. 2019 20:13

#	Program:	/corina/corina34_cracker 3.40 0067  02.08.2006

@<TRIPOS>MOLECULE
ASD01948019
  48   51    0    0    0
SMALL
NO_CHARGES


@<TRIPOS>ATOM
   1 C1            -0.5711     1.3982     0.0882 C.2     
   2 C2            -0.4021     0.0445    -0.1560 C.2     
   3 C3             0.8667    -0.5386    -0.0256 C.2     
   4 C4             1.9411     0.2606     0.3492 C.2     
   5 C5             1.7297     1.6145     0.5846 C.2     
   6 N6             0.5007     2.1569     0.4542 N.am    
   7 N7            -1.7336     2.1432     0.0065 N.pl3   
   8 C8            -1.4399     3.5379     0.3516 C.3     
   9 C9             0.0671     3.5501     0.6536 C.3     
  10 O10            2.6695     2.3231     0.9149 O.2     
  11 C11            3.3179    -0.3336     0.4991 C.3     
  12 N12            1.0472    -1.8927    -0.2667 N.pl3   
  13 C13            0.4568    -2.8386     0.5788 C.ar    
  14 C14            0.5234    -4.1923     0.2646 C.ar    
  15 C15           -0.0612    -5.1236     1.1024 C.ar    
  16 C16           -0.7116    -4.7098     2.2518 C.ar    
  17 C17           -0.7792    -3.3644     2.5655 C.ar    
  18 C18           -0.1916    -2.4288     1.7355 C.ar    
  19 F19            1.1579    -4.5959    -0.8577 F       
  20 Br20          -1.5101    -5.9865     3.3956 Br      
  21 C21           -3.0507     1.6214    -0.3665 C.3     
  22 C22           -3.2119     1.6880    -1.8634 C.ar    
  23 C23           -2.8154     0.6222    -2.6494 C.ar    
  24 C24           -2.9632     0.6833    -4.0224 C.ar    
  25 C25           -3.5080     1.8100    -4.6095 C.ar    
  26 C26           -3.9053     2.8755    -3.8235 C.ar    
  27 C27           -3.7614     2.8126    -2.4500 C.ar    
  28 N28           -1.5064    -0.7469    -0.5351 N.pl3   
  29 H29           -1.6619     4.1932    -0.4907 H       
  30 H30           -2.0090     3.8404     1.2306 H       
  31 H31            0.2472     3.8601     1.6830 H       
  32 H32            0.5863     4.2121    -0.0394 H       
  33 H33            3.8123    -0.3545    -0.4721 H       
  34 H34            3.9021     0.2730     1.1911 H       
  35 H35            3.2352    -1.3490     0.8866 H       
  36 H36            1.5826    -2.1839    -1.0213 H       
  37 H37           -0.0106    -6.1748     0.8596 H       
  38 H38           -1.2882    -3.0449     3.4629 H       
  39 H39           -0.2410    -1.3790     1.9843 H       
  40 H40           -3.1378     0.5859    -0.0374 H       
  41 H41           -3.8270     2.2204     0.1095 H       
  42 H42           -2.3898    -0.2581    -2.1907 H       
  43 H43           -2.6528    -0.1491    -4.6366 H       
  44 H44           -3.6228     1.8581    -5.6823 H       
  45 H45           -4.3305     3.7559    -4.2821 H       
  46 H46           -4.0752     3.6435    -1.8356 H       
  47 H47           -2.3513    -0.3257    -0.7578 H       
  48 H48           -1.4208    -1.7124    -0.5732 H       
@<TRIPOS>BOND
   1    1    2 2
   2    1    6 1
   3    1    7 1
   4    2    3 1
   5    2   28 1
   6    3    4 2
   7    3   12 1
   8    4    5 1
   9    4   11 1
  10    5    6 am
  11    5   10 2
  12    6    9 1
  13    7    8 1
  14    7   21 1
  15    8    9 1
  16    8   29 1
  17    8   30 1
  18    9   31 1
  19    9   32 1
  20   11   33 1
  21   11   34 1
  22   11   35 1
  23   12   13 1
  24   12   36 1
  25   13   14 ar
  26   13   18 ar
  27   14   15 ar
  28   14   19 1
  29   15   16 ar
  30   15   37 1
  31   16   17 ar
  32   16   20 1
  33   17   18 ar
  34   17   38 1
  35   18   39 1
  36   21   22 1
  37   21   40 1
  38   21   41 1
  39   22   23 ar
  40   22   27 ar
  41   23   24 ar
  42   23   42 1
  43   24   25 ar
  44   24   43 1
  45   25   26 ar
  46   25   44 1
  47   26   27 ar
  48   26   45 1
  49   27   46 1
  50   28   47 1
  51   28   48 1

#	End of record

