#	Name: ASD01913205
#	Creating user name:	WinNT
#	Creation time:	15. 06. 2019 20:01

#	Modifying user name:	WinNT
#	Modification time:	15. 06. 2019 20:01

#	Program:	/corina/corina34_cracker 3.40 0067  02.08.2006

@<TRIPOS>MOLECULE
ASD01913205
  47   50    0    0    0
SMALL
NO_CHARGES


@<TRIPOS>ATOM
   1 C1             0.0758     1.2446     1.0382 C.ar    
   2 C2             0.0686    -0.1059     0.7407 C.ar    
   3 C3             1.2730    -0.7676     0.5843 C.ar    
   4 C4             2.4505    -0.0501     0.7321 C.ar    
   5 C5             2.3801     1.2994     1.0301 C.ar    
   6 N6             1.2135     1.8979     1.1722 N.ar    
   7 N7            -0.4561    -2.3949     0.2409 N.am    
   8 C8            -1.0544    -1.0879     0.5341 C.3     
   9 C9             0.9996    -2.2130     0.2682 C.3     
  10 C10            3.6502     2.0937     1.1940 C.3     
  11 C11           -1.1171    -3.5432    -0.0059 C.2     
  12 C12           -2.5874    -3.5902     0.1192 C.ar    
  13 C13           -3.2575    -4.8083     0.0148 C.ar    
  14 C14           -4.6449    -4.8464     0.1343 C.ar    
  15 C15           -5.3580    -3.6572     0.3589 C.ar    
  16 C16           -4.6806    -2.4507     0.4606 C.ar    
  17 C17           -3.3077    -2.4135     0.3482 C.ar    
  18 O18           -0.5026    -4.5404    -0.3317 O.2     
  19 C19           -5.3415    -6.0930     0.0280 C.1     
  20 C20           -5.9127    -7.1150    -0.0592 C.1     
  21 C21           -6.6093    -8.3616    -0.1655 C.ar    
  22 C22           -8.0014    -8.3911    -0.0445 C.ar    
  23 C23           -8.6587    -9.6030    -0.1497 C.ar    
  24 C24           -7.9063   -10.7489    -0.3725 C.ar    
  25 C25           -6.5316   -10.6488    -0.4823 C.ar    
  26 N26           -5.9276    -9.4822    -0.3841 N.ar    
  27 O27           -6.7087    -3.6883     0.4760 O.3     
  28 C28           -7.3691    -2.4417     0.7036 C.3     
  29 Cl29           3.9889    -0.8328     0.5468 Cl      
  30 H30           -0.8598     1.7706     1.1576 H       
  31 H31           -1.6592    -1.1531     1.4386 H       
  32 H32           -1.6745    -0.7692    -0.3038 H       
  33 H33            1.4219    -2.4649    -0.7046 H       
  34 H34            1.4371    -2.8488     1.0380 H       
  35 H35            3.9476     2.5064     0.2300 H       
  36 H36            3.4819     2.9063     1.9007 H       
  37 H37            4.4397     1.4430     1.5699 H       
  38 H38           -2.7031    -5.7189    -0.1583 H       
  39 H39           -5.2311    -1.5376     0.6330 H       
  40 H40           -2.7863    -1.4715     0.4332 H       
  41 H41           -8.5557    -7.4805     0.1290 H       
  42 H42           -9.7336    -9.6574    -0.0602 H       
  43 H43           -8.3909   -11.7102    -0.4588 H       
  44 H44           -5.9452   -11.5390    -0.6556 H       
  45 H45           -7.0048    -2.0017     1.6320 H       
  46 H46           -7.1625    -1.7644    -0.1250 H       
  47 H47           -8.4438    -2.6080     0.7777 H       
@<TRIPOS>BOND
   1    1    2 ar
   2    1    6 ar
   3    1   30 1
   4    2    3 ar
   5    2    8 1
   6    3    4 ar
   7    3    9 1
   8    4    5 ar
   9    4   29 1
  10    5    6 ar
  11    5   10 1
  12    7    8 1
  13    7    9 1
  14    7   11 am
  15    8   31 1
  16    8   32 1
  17    9   33 1
  18    9   34 1
  19   10   35 1
  20   10   36 1
  21   10   37 1
  22   11   12 1
  23   11   18 2
  24   12   13 ar
  25   12   17 ar
  26   13   14 ar
  27   13   38 1
  28   14   15 ar
  29   14   19 1
  30   15   16 ar
  31   15   27 1
  32   16   17 ar
  33   16   39 1
  34   17   40 1
  35   19   20 3
  36   20   21 1
  37   21   22 ar
  38   21   26 ar
  39   22   23 ar
  40   22   41 1
  41   23   24 ar
  42   23   42 1
  43   24   25 ar
  44   24   43 1
  45   25   26 ar
  46   25   44 1
  47   27   28 1
  48   28   45 1
  49   28   46 1
  50   28   47 1

#	End of record

