#	Name: ASD02038776
#	Creating user name:	WinNT
#	Creation time:	15. 06. 2019 20:17

#	Modifying user name:	WinNT
#	Modification time:	15. 06. 2019 20:17

#	Program:	/corina/corina34_cracker 3.40 0067  02.08.2006

@<TRIPOS>MOLECULE
ASD02038776
  44   46    0    0    0
SMALL
NO_CHARGES


@<TRIPOS>ATOM
   1 C1             0.0348     1.3250    -0.8049 C.2     
   2 C2             0.0153    -0.1266    -0.5538 C.2     
   3 N3             1.1664    -0.8274    -0.5622 N.am    
   4 C4             1.1642    -2.2443    -0.1897 C.3     
   5 O5             1.1540    -3.0476    -1.3715 O.3     
   6 C6             2.4200    -0.1724    -0.9440 C.3     
   7 O7            -1.0396    -0.6924    -0.3388 O.2     
   8 N8             1.1392     2.1098    -0.8903 N.2     
   9 C9             0.7675     3.3360    -1.1203 C.2     
  10 N10           -0.5884     3.3814    -1.1905 N.pl3   
  11 C11           -1.0534     2.1243    -0.9997 C.2     
  12 C12            2.3553    -3.3047    -1.9532 C.ar    
  13 C13            2.4162    -4.0545    -3.1187 C.ar    
  14 C14            2.2352     0.5463    -2.2840 C.3     
  15 C15            3.5248     1.2925    -2.6361 C.3     
  16 O16            3.8448     2.2089    -1.5873 O.3     
  17 C17            4.0752     1.5887    -0.3207 C.3     
  18 C18            2.8077     0.8544     0.1244 C.3     
  19 C19           -1.4013     4.5753    -1.4351 C.3     
  20 C20            3.6380    -4.3144    -3.7086 C.ar    
  21 C21            4.8005    -3.8273    -3.1378 C.ar    
  22 C22            4.7417    -3.0792    -1.9753 C.ar    
  23 C23            3.5214    -2.8128    -1.3852 C.ar    
  24 Cl24           6.3347    -4.1557    -3.8807 Cl      
  25 H25            2.0572    -2.4679     0.3940 H       
  26 H26            0.2772    -2.4621     0.4053 H       
  27 H27            3.2083    -0.9195    -1.0367 H       
  28 H28            1.4301     4.1809    -1.2362 H       
  29 H29           -2.0881     1.8149    -0.9952 H       
  30 H30            1.5091    -4.4351    -3.5644 H       
  31 H31            2.0132    -0.1844    -3.0617 H       
  32 H32            1.4128     1.2574    -2.2055 H       
  33 H33            4.3382     0.5766    -2.7542 H       
  34 H34            3.3847     1.8407    -3.5677 H       
  35 H35            4.8959     0.8767    -0.4085 H       
  36 H36            4.3317     2.3503     0.4157 H       
  37 H37            1.9969     1.5717     0.2515 H       
  38 H38            2.9952     0.3440     1.0691 H       
  39 H39           -1.5568     4.6956    -2.5072 H       
  40 H40           -2.3653     4.4667    -0.9381 H       
  41 H41           -0.8867     5.4521    -1.0420 H       
  42 H42            3.6859    -4.8984    -4.6159 H       
  43 H43            5.6502    -2.6999    -1.5311 H       
  44 H44            3.4759    -2.2289    -0.4778 H       
@<TRIPOS>BOND
   1    1    2 1
   2    1    8 1
   3    1   11 2
   4    2    3 am
   5    2    7 2
   6    3    4 1
   7    3    6 1
   8    4    5 1
   9    4   25 1
  10    4   26 1
  11    5   12 1
  12    6   14 1
  13    6   18 1
  14    6   27 1
  15    8    9 2
  16    9   10 1
  17    9   28 1
  18   10   11 1
  19   10   19 1
  20   11   29 1
  21   12   13 ar
  22   12   23 ar
  23   13   20 ar
  24   13   30 1
  25   14   15 1
  26   14   31 1
  27   14   32 1
  28   15   16 1
  29   15   33 1
  30   15   34 1
  31   16   17 1
  32   17   18 1
  33   17   35 1
  34   17   36 1
  35   18   37 1
  36   18   38 1
  37   19   39 1
  38   19   40 1
  39   19   41 1
  40   20   21 ar
  41   20   42 1
  42   21   22 ar
  43   21   24 1
  44   22   23 ar
  45   22   43 1
  46   23   44 1

#	End of record

