#	Name: ASD01320059
#	Creating user name:	WinNT
#	Creation time:	15. 06. 2019 19:15

#	Modifying user name:	WinNT
#	Modification time:	15. 06. 2019 19:15

#	Program:	/corina/corina34_cracker 3.40 0067  02.08.2006

@<TRIPOS>MOLECULE
ASD01320059
 125  132    0    0    0
SMALL
NO_CHARGES


@<TRIPOS>ATOM
   1 C1            -1.0503    -0.3049    -2.7655 C.3     
   2 O2            -0.9073    -1.7168    -2.9331 O.3     
   3 C3            -0.0636    -2.1391    -3.9084 C.ar    
   4 C4             0.1210    -3.5000    -4.1238 C.ar    
   5 C5             0.9760    -3.9327    -5.1123 C.ar    
   6 C6             1.6588    -3.0013    -5.9002 C.ar    
   7 C7             1.4699    -1.6337    -5.6805 C.ar    
   8 C8             0.6093    -1.2096    -4.6931 C.ar    
   9 C9             2.5760    -3.4602    -6.9598 C.2     
  10 O10            2.7392    -4.6493    -7.1491 O.2     
  11 O11            3.2331    -2.5609    -7.7181 O.3     
  12 C12            4.1195    -3.0843    -8.7421 C.3     
  13 C13            4.7619    -1.9401    -9.4833 C.2     
  14 N14            5.6352    -2.0300   -10.4926 N.2     
  15 N15            5.9612    -0.8436   -10.8680 N.2     
  16 N16            5.3448     0.0328   -10.1547 N.pl3   
  17 C17            4.5642    -0.6195    -9.2624 C.2     
  18 C18            5.4637     1.4868   -10.2895 C.3     
  19 C19            6.9137     1.8839   -10.1858 C.2     
  20 O20            7.7609     1.0392   -10.0168 O.2     
  21 O21            7.2641     3.1762   -10.2814 O.3     
  22 C22            8.6823     3.4862   -10.1721 C.3     
  23 C23            9.3151     3.4503   -11.5569 C.3     
  24 C24           10.7891     3.8361   -11.4778 C.3     
  25 C25           10.9185     5.2817   -10.9629 C.3     
  26 C26           10.2618     5.3638    -9.5918 C.3     
  27 C27            8.8447     4.8500    -9.4997 C.3     
  28 C28            7.8153     5.8323   -10.0562 C.3     
  29 C29            8.5041     4.6381    -8.0032 C.3     
  30 C30           10.4292     6.7755    -9.0298 C.3     
  31 C31           11.9304     6.9620    -8.7434 C.3     
  32 C32           12.7349     6.8583   -10.0358 C.3     
  33 C33           12.4085     5.5917   -10.8143 C.3     
  34 C34           13.0981     5.6396   -12.1775 C.3     
  35 C35           14.5619     5.9315   -11.9880 C.2     
  36 C36           15.0601     6.4733   -10.9162 C.2     
  37 C37           14.2356     6.8831    -9.7255 C.3     
  38 C38           14.5222     5.8386    -8.6355 C.3     
  39 C39           14.6691     8.2345    -9.1766 C.3     
  40 C40           16.1894     8.3477    -9.0573 C.3     
  41 C41           16.8551     8.0973   -10.4127 C.3     
  42 C42           16.5642     6.6571   -10.8299 C.3     
  43 C43           17.2341     6.3279   -12.1540 C.3     
  44 C44           18.7433     6.5541   -12.0775 C.3     
  45 C45           19.3807     5.5258   -11.1403 C.3     
  46 C46           19.3386     6.3633   -13.4820 C.3     
  47 C47           19.0667     7.9652   -11.5991 C.3     
  48 C48           18.3651     8.2961   -10.2874 C.3     
  49 C49           16.3049     9.0645   -11.4260 C.2     
  50 O50           15.7401     8.6514   -12.4109 O.2     
  51 O51           16.4417    10.3862   -11.2355 O.3     
  52 C52           15.8867    11.2599   -12.2538 C.3     
  53 C53           16.1339    12.6966   -11.8721 C.ar    
  54 C54           17.2898    13.3324   -12.2851 C.ar    
  55 C55           17.5166    14.6503   -11.9349 C.ar    
  56 C56           16.5873    15.3326   -11.1721 C.ar    
  57 C57           15.4310    14.6970   -10.7599 C.ar    
  58 C58           15.2022    13.3805   -11.1137 C.ar    
  59 C59           12.4274     8.0967   -10.8943 C.3     
  60 C60           10.2589     6.2009   -11.9851 C.3     
  61 H61           -0.0815     0.1324    -2.5242 H       
  62 H62           -1.4272     0.1343    -3.6892 H       
  63 H63           -1.7514    -0.1044    -1.9553 H       
  64 H64           -0.4069    -4.2188    -3.5147 H       
  65 H65            1.1194    -4.9901    -5.2786 H       
  66 H66            1.9958    -0.9110    -6.2867 H       
  67 H67            0.4625    -0.1532    -4.5229 H       
  68 H68            4.8927    -3.6950    -8.2759 H       
  69 H69            3.5471    -3.6942    -9.4411 H       
  70 H70            3.9190    -0.1756    -8.5187 H       
  71 H71            5.0709     1.7952   -11.2583 H       
  72 H72            4.8963     1.9728    -9.4959 H       
  73 H73            9.1544     2.7243    -9.5414 H       
  74 H74            9.2459     2.4238   -11.9473 H       
  75 H75            8.7734     4.0954   -12.2419 H       
  76 H76           11.3099     3.1693   -10.7917 H       
  77 H77           11.2398     3.7705   -12.4673 H       
  78 H78           10.8766     4.7041    -8.9255 H       
  79 H79            7.9533     5.9322   -11.1328 H       
  80 H80            6.8111     5.4610    -9.8516 H       
  81 H81            7.9470     6.8045    -9.5813 H       
  82 H82            8.5946     5.5858    -7.4723 H       
  83 H83            7.4835     4.2665    -7.9119 H       
  84 H84            9.1947     3.9130    -7.5725 H       
  85 H85           10.0789     7.5316    -9.7145 H       
  86 H86            9.8951     6.8717    -8.0822 H       
  87 H87           12.0769     7.9466    -8.2971 H       
  88 H88           12.2057     6.1954    -8.0239 H       
  89 H89           12.8449     4.7301   -10.2649 H       
  90 H90           13.0072     4.6573   -12.6584 H       
  91 H91           12.6705     6.3851   -12.8371 H       
  92 H92           15.2275     5.6700   -12.7986 H       
  93 H93           14.2314     4.8510    -8.9933 H       
  94 H94           15.5866     5.8412    -8.4006 H       
  95 H95           13.9517     6.0828    -7.7393 H       
  96 H96           14.3051     9.0739    -9.7578 H       
  97 H97           14.2461     8.3446    -8.1623 H       
  98 H98           16.4463     9.3584    -8.7241 H       
  99 H99           16.5686     7.6346    -8.3290 H       
 100 H100          16.9479     5.9810   -10.0536 H       
 101 H101          17.0552     5.2690   -12.3896 H       
 102 H102          16.8120     6.9254   -12.9616 H       
 103 H103          19.1877     4.5215   -11.5175 H       
 104 H104          20.4564     5.6954   -11.0924 H       
 105 H105          18.9521     5.6280   -10.1433 H       
 106 H106          18.8896     7.0819   -14.1676 H       
 107 H107          20.4164     6.5215   -13.4444 H       
 108 H108          19.1318     5.3511   -13.8298 H       
 109 H109          20.1526     8.0410   -11.4467 H       
 110 H110          18.7947     8.6863   -12.3708 H       
 111 H111          18.5618     9.3424   -10.0266 H       
 112 H112          18.7484     7.6669    -9.4829 H       
 113 H113          16.3640    11.0510   -13.2112 H       
 114 H114          14.8140    11.0854   -12.3368 H       
 115 H115          18.0159    12.7994   -12.8810 H       
 116 H116          18.4200    15.1468   -12.2570 H       
 117 H117          16.7649    16.3620   -10.8980 H       
 118 H118          14.7051    15.2299   -10.1636 H       
 119 H119          14.2988    12.8839   -10.7916 H       
 120 H120          12.7619     8.9930   -10.3719 H       
 121 H121          12.9487     8.0161   -11.8481 H       
 122 H122          11.3537     8.1587   -11.0712 H       
 123 H123           9.2688     5.8181   -12.2324 H       
 124 H124          10.1669     7.2031   -11.5664 H       
 125 H125          10.8696     6.2387   -12.8872 H       
@<TRIPOS>BOND
   1    1    2 1
   2    1   61 1
   3    1   62 1
   4    1   63 1
   5    2    3 1
   6    3    4 ar
   7    3    8 ar
   8    4    5 ar
   9    4   64 1
  10    5    6 ar
  11    5   65 1
  12    6    7 ar
  13    6    9 1
  14    7    8 ar
  15    7   66 1
  16    8   67 1
  17    9   10 2
  18    9   11 1
  19   11   12 1
  20   12   13 1
  21   12   68 1
  22   12   69 1
  23   13   14 1
  24   13   17 2
  25   14   15 2
  26   15   16 1
  27   16   17 1
  28   16   18 1
  29   17   70 1
  30   18   19 1
  31   18   71 1
  32   18   72 1
  33   19   20 2
  34   19   21 1
  35   21   22 1
  36   22   23 1
  37   22   27 1
  38   22   73 1
  39   23   24 1
  40   23   74 1
  41   23   75 1
  42   24   25 1
  43   24   76 1
  44   24   77 1
  45   25   26 1
  46   25   60 1
  47   25   33 1
  48   26   27 1
  49   26   30 1
  50   26   78 1
  51   27   28 1
  52   27   29 1
  53   28   79 1
  54   28   80 1
  55   28   81 1
  56   29   82 1
  57   29   83 1
  58   29   84 1
  59   30   31 1
  60   30   85 1
  61   30   86 1
  62   31   32 1
  63   31   87 1
  64   31   88 1
  65   32   37 1
  66   32   59 1
  67   32   33 1
  68   33   34 1
  69   33   89 1
  70   34   35 1
  71   34   90 1
  72   34   91 1
  73   35   36 2
  74   35   92 1
  75   36   37 1
  76   36   42 1
  77   37   38 1
  78   37   39 1
  79   38   93 1
  80   38   94 1
  81   38   95 1
  82   39   40 1
  83   39   96 1
  84   39   97 1
  85   40   41 1
  86   40   98 1
  87   40   99 1
  88   41   49 1
  89   41   42 1
  90   41   48 1
  91   42   43 1
  92   42  100 1
  93   43   44 1
  94   43  101 1
  95   43  102 1
  96   44   45 1
  97   44   46 1
  98   44   47 1
  99   45  103 1
 100   45  104 1
 101   45  105 1
 102   46  106 1
 103   46  107 1
 104   46  108 1
 105   47   48 1
 106   47  109 1
 107   47  110 1
 108   48  111 1
 109   48  112 1
 110   49   50 2
 111   49   51 1
 112   51   52 1
 113   52   53 1
 114   52  113 1
 115   52  114 1
 116   53   54 ar
 117   53   58 ar
 118   54   55 ar
 119   54  115 1
 120   55   56 ar
 121   55  116 1
 122   56   57 ar
 123   56  117 1
 124   57   58 ar
 125   57  118 1
 126   58  119 1
 127   59  120 1
 128   59  121 1
 129   59  122 1
 130   60  123 1
 131   60  124 1
 132   60  125 1

#	End of record

