#	Name: ASD01680070
#	Creating user name:	WinNT
#	Creation time:	15. 06. 2019 19:22

#	Modifying user name:	WinNT
#	Modification time:	15. 06. 2019 19:22

#	Program:	/corina/corina34_cracker 3.40 0067  02.08.2006

@<TRIPOS>MOLECULE
ASD01680070
  74   77    0    0    0
SMALL
NO_CHARGES


@<TRIPOS>ATOM
   1 N1             0.8405     2.7382    -1.0221 N.am    
   2 C2             0.5436     1.2950    -1.0703 C.3     
   3 C3             1.7297     0.6214    -0.3361 C.3     
   4 C4             2.9198     1.5087    -0.7873 C.3     
   5 C5             2.2915     2.9161    -0.8655 C.3     
   6 C6            -0.0673     3.7303    -1.1125 C.2     
   7 O7            -1.2333     3.4687    -1.3328 O.2     
   8 O8             0.3179     5.0112    -0.9587 O.3     
   9 C9            -0.7701     0.9970    -0.3449 C.3     
  10 N10           -0.7193     1.5581     1.0075 N.pl3   
  11 C11           -1.8407     1.4995     1.8268 C.ar    
  12 C12           -3.0082     0.9067     1.3562 C.ar    
  13 C13           -4.1164     0.8554     2.1820 C.ar    
  14 C14           -4.0198     1.4006     3.4557 C.ar    
  15 C15           -2.8300     1.9734     3.8574 C.ar    
  16 N16           -1.7866     2.0036     3.0499 N.ar    
  17 O17            3.9699     1.4770     0.1813 O.3     
  18 C18            5.2760     1.6528    -0.3713 C.3     
  19 C19            6.2998     1.6022     0.7333 C.2     
  20 N20            7.6088     1.7458     0.4460 N.am    
  21 O21            5.9459     1.4323     1.8809 O.2     
  22 C22            8.6119     1.5901     1.5023 C.3     
  23 C23            9.5970     0.4866     1.1113 C.3     
  24 C24            8.8738    -0.8341     1.0505 C.ar    
  25 C25            8.2946    -1.2511    -0.1334 C.ar    
  26 C26            7.6311    -2.4625    -0.1892 C.ar    
  27 C27            7.5472    -3.2571     0.9388 C.ar    
  28 C28            8.1271    -2.8405     2.1225 C.ar    
  29 C29            8.7943    -1.6311     2.1771 C.ar    
  30 C30            9.3682     2.9074     1.6857 C.3     
  31 C31            8.4141     3.9722     2.1622 C.2     
  32 O32            7.2740     3.6823     2.4377 O.2     
  33 O33            8.8310     5.2426     2.2804 O.3     
  34 C34           -0.7134     6.0274    -1.0690 C.3     
  35 C35           -0.0999     7.3894    -0.8700 C.ar    
  36 C36            0.3859     8.0939    -1.9556 C.ar    
  37 C37            0.9488     9.3432    -1.7731 C.ar    
  38 C38            1.0253     9.8882    -0.5050 C.ar    
  39 C39            0.5387     9.1841     0.5804 C.ar    
  40 C40           -0.0281     7.9367     0.3974 C.ar    
  41 H41            0.4934     0.9523    -2.1038 H       
  42 H42            1.5965     0.6666     0.7448 H       
  43 H43            1.8616    -0.4080    -0.6692 H       
  44 H44            3.2859     1.1950    -1.7649 H       
  45 H45            2.6937     3.4545    -1.7236 H       
  46 H46            2.5006     3.4669     0.0516 H       
  47 H47           -1.5981     1.4459    -0.8936 H       
  48 H48           -0.9159    -0.0815    -0.2856 H       
  49 H49            0.0969     1.9704     1.3312 H       
  50 H50           -3.0486     0.4927     0.3596 H       
  51 H51           -5.0364     0.4018     1.8439 H       
  52 H52           -4.8671     1.3769     4.1249 H       
  53 H53           -2.7505     2.3986     4.8470 H       
  54 H54            5.4767     0.8578    -1.0894 H       
  55 H55            5.3309     2.6186    -0.8736 H       
  56 H56            7.8866     1.9523    -0.4601 H       
  57 H57            8.1177     1.3218     2.4360 H       
  58 H58           10.0256     0.7115     0.1346 H       
  59 H59           10.3934     0.4309     1.8534 H       
  60 H60            8.3602    -0.6302    -1.0147 H       
  61 H61            7.1781    -2.7880    -1.1140 H       
  62 H62            7.0282    -4.2033     0.8954 H       
  63 H63            8.0612    -3.4612     3.0038 H       
  64 H64            9.2506    -1.3073     3.1009 H       
  65 H65           10.1596     2.7724     2.4229 H       
  66 H66            9.8056     3.2107     0.7345 H       
  67 H67            8.1830     5.8903     2.5899 H       
  68 H68           -1.1704     5.9756    -2.0572 H       
  69 H69           -1.4744     5.8569    -0.3074 H       
  70 H70            0.3261     7.6681    -2.9463 H       
  71 H71            1.3290     9.8933    -2.6212 H       
  72 H72            1.4657    10.8640    -0.3624 H       
  73 H73            0.5988     9.6098     1.5712 H       
  74 H74           -0.4116     7.3881     1.2450 H       
@<TRIPOS>BOND
   1    1    2 1
   2    1    5 1
   3    1    6 am
   4    2    3 1
   5    2    9 1
   6    2   41 1
   7    3    4 1
   8    3   42 1
   9    3   43 1
  10    4    5 1
  11    4   17 1
  12    4   44 1
  13    5   45 1
  14    5   46 1
  15    6    7 2
  16    6    8 1
  17    8   34 1
  18    9   10 1
  19    9   47 1
  20    9   48 1
  21   10   11 1
  22   10   49 1
  23   11   12 ar
  24   11   16 ar
  25   12   13 ar
  26   12   50 1
  27   13   14 ar
  28   13   51 1
  29   14   15 ar
  30   14   52 1
  31   15   16 ar
  32   15   53 1
  33   17   18 1
  34   18   19 1
  35   18   54 1
  36   18   55 1
  37   19   20 am
  38   19   21 2
  39   20   22 1
  40   20   56 1
  41   22   23 1
  42   22   30 1
  43   22   57 1
  44   23   24 1
  45   23   58 1
  46   23   59 1
  47   24   25 ar
  48   24   29 ar
  49   25   26 ar
  50   25   60 1
  51   26   27 ar
  52   26   61 1
  53   27   28 ar
  54   27   62 1
  55   28   29 ar
  56   28   63 1
  57   29   64 1
  58   30   31 1
  59   30   65 1
  60   30   66 1
  61   31   32 2
  62   31   33 1
  63   33   67 1
  64   34   35 1
  65   34   68 1
  66   34   69 1
  67   35   36 ar
  68   35   40 ar
  69   36   37 ar
  70   36   70 1
  71   37   38 ar
  72   37   71 1
  73   38   39 ar
  74   38   72 1
  75   39   40 ar
  76   39   73 1
  77   40   74 1

#	End of record

