#	Name: ASD01140282
#	Creating user name:	WinNT
#	Creation time:	15. 06. 2019 19:00

#	Modifying user name:	WinNT
#	Modification time:	15. 06. 2019 19:00

#	Program:	/corina/corina34_cracker 3.40 0067  02.08.2006

@<TRIPOS>MOLECULE
ASD01140282
  46   49    0    0    0
SMALL
NO_CHARGES


@<TRIPOS>ATOM
   1 C1            -1.1114     1.1601    -0.1268 C.ar    
   2 C2            -1.0850    -0.2278     0.0367 C.ar    
   3 C3             0.1355    -0.8905     0.1680 C.ar    
   4 C4             1.3129    -0.1608     0.1334 C.ar    
   5 C5             1.2832     1.2319    -0.0701 C.ar    
   6 C6             0.0621     1.8817    -0.1788 C.ar    
   7 C7             2.6338    -0.8203     0.3449 C.2     
   8 N8             3.5419    -0.6604    -0.5528 N.2     
   9 C9             3.4144     0.2345    -1.6982 C.3     
  10 C10            3.5198     1.6806    -1.2308 C.3     
  11 N11            2.4803     1.9045    -0.1959 N.pl3   
  12 C12            3.0382     2.7624     0.7157 C.2     
  13 C13            4.8093     2.0285    -0.4932 C.3     
  14 N14            4.3196     2.8490     0.6318 N.2     
  15 C15            2.8929    -1.6365     1.5538 C.ar    
  16 C16            4.0625    -2.3898     1.6525 C.ar    
  17 C17            1.9708    -1.6504     2.6001 C.ar    
  18 C18            2.2177    -2.4126     3.7234 C.ar    
  19 C19            3.3771    -3.1622     3.8131 C.ar    
  20 C20            4.2982    -3.1481     2.7809 C.ar    
  21 C21           -2.3099    -0.9689     0.0699 C.1     
  22 C22           -3.3141    -1.5764     0.0971 C.1     
  23 C23            5.4915     0.7824     0.0099 C.2     
  24 O24            5.2940     0.3993     1.1386 O.2     
  25 O25            6.3186     0.0982    -0.7961 O.3     
  26 C26            7.0299    -1.0244    -0.2110 C.3     
  27 C27            8.0120    -1.5958    -1.2356 C.3     
  28 H28           -2.0587     1.6707    -0.2176 H       
  29 H29            0.1624    -1.9625     0.2959 H       
  30 H30            0.0309     2.9539    -0.3044 H       
  31 H31            4.2104     0.0251    -2.4128 H       
  32 H32            2.4475     0.0770    -2.1760 H       
  33 H33            3.3616     2.3563    -2.0713 H       
  34 H34            2.4559     3.3154     1.4379 H       
  35 H35            5.4773     2.6061    -1.1320 H       
  36 H36            4.7821    -2.3799     0.8472 H       
  37 H37            1.0656    -1.0653     2.5314 H       
  38 H38            1.5047    -2.4239     4.5345 H       
  39 H39            3.5660    -3.7573     4.6943 H       
  40 H40            5.2014    -3.7353     2.8566 H       
  41 H41           -4.2122    -2.1198     0.1214 H       
  42 H42            7.5778    -0.6883     0.6693 H       
  43 H43            6.3162    -1.7960     0.0778 H       
  44 H44            8.5460    -2.4384    -0.7964 H       
  45 H45            7.4641    -1.9318    -2.1159 H       
  46 H46            8.7256    -0.8242    -1.5244 H       
@<TRIPOS>BOND
   1    1    2 ar
   2    1    6 ar
   3    1   28 1
   4    2    3 ar
   5    2   21 1
   6    3    4 ar
   7    3   29 1
   8    4    5 ar
   9    4    7 1
  10    5    6 ar
  11    5   11 1
  12    6   30 1
  13    7    8 2
  14    7   15 1
  15    8    9 1
  16    9   10 1
  17    9   31 1
  18    9   32 1
  19   10   11 1
  20   10   13 1
  21   10   33 1
  22   11   12 1
  23   12   14 2
  24   12   34 1
  25   13   14 1
  26   13   23 1
  27   13   35 1
  28   15   16 ar
  29   15   17 ar
  30   16   20 ar
  31   16   36 1
  32   17   18 ar
  33   17   37 1
  34   18   19 ar
  35   18   38 1
  36   19   20 ar
  37   19   39 1
  38   20   40 1
  39   21   22 3
  40   22   41 1
  41   23   24 2
  42   23   25 1
  43   25   26 1
  44   26   27 1
  45   26   42 1
  46   26   43 1
  47   27   44 1
  48   27   45 1
  49   27   46 1

#	End of record

