#	Name: ASD01901332
#	Creating user name:	WinNT
#	Creation time:	15. 06. 2019 19:53

#	Modifying user name:	WinNT
#	Modification time:	15. 06. 2019 19:53

#	Program:	/corina/corina34_cracker 3.40 0067  02.08.2006

@<TRIPOS>MOLECULE
ASD01901332
  40   43    0    0    0
SMALL
NO_CHARGES


@<TRIPOS>ATOM
   1 C1            -0.0169     1.3958     0.0097 C.ar    
   2 C2             1.1774     2.1003     0.0021 C.ar    
   3 C3             2.3827     1.4200    -0.0131 C.ar    
   4 C4             2.4025     0.0343    -0.0212 C.ar    
   5 C5             1.2200    -0.6780    -0.0137 C.ar    
   6 C6             0.0021    -0.0041     0.0020 C.ar    
   7 C7            -1.2709    -0.7663     0.0106 C.2     
   8 N8            -3.1793    -1.5369    -1.1466 N.2     
   9 C9            -2.0557    -0.8624    -1.1593 C.2     
  10 C10           -1.6977    -1.3901     1.1496 C.2     
  11 N11           -2.8723    -2.0827     1.1226 N.pl3   
  12 C12           -3.6084    -2.1480    -0.0322 C.2     
  13 C13           -3.5496    -2.7956     2.0748 C.2     
  14 C14           -4.6686    -3.2744     1.4907 C.2     
  15 N15           -4.6900    -2.8731     0.2163 N.2     
  16 C16           -5.7190    -4.1197     2.1639 C.3     
  17 O17           -5.3507    -4.3412     3.5267 O.3     
  18 C18           -6.1972    -5.0908     4.2806 C.ar    
  19 C19           -7.3557    -5.6074     3.7186 C.ar    
  20 C20           -5.9015    -5.3455     5.6119 C.ar    
  21 C21           -6.7637    -6.1078     6.3761 C.ar    
  22 C22           -7.9203    -6.6171     5.8151 C.ar    
  23 C23           -8.2146    -6.3690     4.4871 C.ar    
  24 F24            3.5445     2.1095    -0.0205 F       
  25 N25           -1.2331     2.0795     0.0308 N.pl3   
  26 H26            1.1672     3.1803     0.0076 H       
  27 H27            3.3465    -0.4902    -0.0337 H       
  28 H28            1.2398    -1.7578    -0.0200 H       
  29 H29           -1.7291    -0.3782    -2.0677 H       
  30 H30           -1.1137    -1.3356     2.0564 H       
  31 H31           -3.2461    -2.9465     3.1002 H       
  32 H32           -6.6789    -3.6046     2.1261 H       
  33 H33           -5.7998    -5.0771     1.6491 H       
  34 H34           -7.5860    -5.4139     2.6814 H       
  35 H35           -4.9979    -4.9485     6.0504 H       
  36 H36           -6.5340    -6.3063     7.4126 H       
  37 H37           -8.5927    -7.2134     6.4140 H       
  38 H38           -9.1166    -6.7714     4.0501 H       
  39 H39           -2.0675     1.5848     0.0402 H       
  40 H40           -1.2443     3.0494     0.0361 H       
@<TRIPOS>BOND
   1    1    6 ar
   2    1    2 ar
   3    1   25 1
   4    2    3 ar
   5    2   26 1
   6    3    4 ar
   7    3   24 1
   8    4    5 ar
   9    4   27 1
  10    5    6 ar
  11    5   28 1
  12    6    7 1
  13    7   10 2
  14    7    9 1
  15    8    9 2
  16    8   12 1
  17    9   29 1
  18   10   11 1
  19   10   30 1
  20   11   13 1
  21   11   12 1
  22   12   15 2
  23   13   14 2
  24   13   31 1
  25   14   15 1
  26   14   16 1
  27   16   17 1
  28   16   32 1
  29   16   33 1
  30   17   18 1
  31   18   20 ar
  32   18   19 ar
  33   19   23 ar
  34   19   34 1
  35   20   21 ar
  36   20   35 1
  37   21   22 ar
  38   21   36 1
  39   22   23 ar
  40   22   37 1
  41   23   38 1
  42   25   39 1
  43   25   40 1

#	End of record

