#	Name: ASD01208988
#	Creating user name:	WinNT
#	Creation time:	15. 06. 2019 19:10

#	Modifying user name:	WinNT
#	Modification time:	15. 06. 2019 19:10

#	Program:	/corina/corina34_cracker 3.40 0067  02.08.2006

@<TRIPOS>MOLECULE
ASD01208988
  47   50    0    0    0
SMALL
NO_CHARGES


@<TRIPOS>ATOM
   1 C1            -2.4958    -0.2577    -2.6437 C.3     
   2 C2            -1.2610     0.1697    -1.8121 C.3     
   3 C3            -1.2233    -0.5710    -0.4739 C.3     
   4 C4            -2.4003    -0.1186     0.3927 C.3     
   5 C5            -3.6921    -0.5650    -0.2420 C.2     
   6 N6            -3.9242    -1.8767    -0.4472 N.am    
   7 C7            -5.1166    -2.2888    -1.0330 C.2     
   8 N8            -2.3907     1.3420     0.5054 N.pl3   
   9 C9            -2.9332     2.2097    -0.3743 C.2     
  10 C10           -2.7121     3.4610     0.0909 C.2     
  11 C11           -2.0104     3.3544     1.2962 C.2     
  12 N12           -1.8221     2.0844     1.5484 N.2     
  13 O13           -4.5231     0.2561    -0.5681 O.2     
  14 S14           -5.5671    -3.9588    -1.3665 S.3     
  15 C15           -7.0998    -3.4073    -2.0394 C.2     
  16 C16           -7.1367    -2.0754    -1.9579 C.2     
  17 N17           -6.0771    -1.5046    -1.4159 N.2     
  18 F18           -8.0700    -4.1965    -2.5501 F       
  19 S19           -3.2186     4.9599    -0.6847 S.o2    
  20 O20           -2.2871     5.9271    -0.2198 O.2     
  21 O21           -3.3044     4.6292    -2.0640 O.2     
  22 C22           -4.8682     5.2865    -0.0045 C.3     
  23 C23           -5.6438     6.4766    -0.5729 C.3     
  24 C24           -6.0700     5.0490    -0.9211 C.3     
  25 C25           -0.0832    -0.2697    -2.7186 C.3     
  26 C26           -0.5900     0.0233    -4.1461 C.3     
  27 C27           -2.1030     0.0331    -4.0813 C.2     
  28 O28           -2.8574     0.2347    -5.0025 O.2     
  29 H29           -2.6946    -1.3212    -2.5110 H       
  30 H30           -3.3679     0.3317    -2.3607 H       
  31 H31           -1.2529     1.2485    -1.6565 H       
  32 H32           -1.2936    -1.6443    -0.6506 H       
  33 H33           -0.2877    -0.3477     0.0388 H       
  34 H34           -2.3115    -0.5602     1.3853 H       
  35 H35           -3.2596    -2.5334    -0.1864 H       
  36 H36           -3.4507     1.9517    -1.2864 H       
  37 H37           -1.6844     4.1779     1.9142 H       
  38 H38           -7.9816    -1.5017    -2.3092 H       
  39 H39           -4.9919     5.0652     1.0556 H       
  40 H40           -6.2780     7.0380     0.1131 H       
  41 H41           -5.1628     7.0633    -1.3556 H       
  42 H42           -5.8694     4.6965    -1.9328 H       
  43 H43           -6.9846     4.6712    -0.4641 H       
  44 H44            0.8082     0.3186    -2.5004 H       
  45 H45            0.1191    -1.3336    -2.5949 H       
  46 H46           -0.2251     0.9950    -4.4788 H       
  47 H47           -0.2513    -0.7559    -4.8289 H       
@<TRIPOS>BOND
   1    1    2 1
   2    1   27 1
   3    1   29 1
   4    1   30 1
   5    2    3 1
   6    2   25 1
   7    2   31 1
   8    3    4 1
   9    3   32 1
  10    3   33 1
  11    4    5 1
  12    4    8 1
  13    4   34 1
  14    5    6 am
  15    5   13 2
  16    6    7 1
  17    6   35 1
  18    7   14 1
  19    7   17 2
  20    8    9 1
  21    8   12 1
  22    9   10 2
  23    9   36 1
  24   10   11 1
  25   10   19 1
  26   11   12 2
  27   11   37 1
  28   14   15 1
  29   15   16 2
  30   15   18 1
  31   16   17 1
  32   16   38 1
  33   19   20 2
  34   19   21 2
  35   19   22 1
  36   22   23 1
  37   22   24 1
  38   22   39 1
  39   23   24 1
  40   23   40 1
  41   23   41 1
  42   24   42 1
  43   24   43 1
  44   25   26 1
  45   25   44 1
  46   25   45 1
  47   26   27 1
  48   26   46 1
  49   26   47 1
  50   27   28 2

#	End of record

