#	Name: ASD08390004
#	Creating user name:	WinNT
#	Creation time:	15. 06. 2019 21:19

#	Modifying user name:	WinNT
#	Modification time:	15. 06. 2019 21:19

#	Program:	/corina/corina34_cracker 3.40 0067  02.08.2006

@<TRIPOS>MOLECULE
ASD08390004
  50   53    0    0    0
SMALL
NO_CHARGES


@<TRIPOS>ATOM
   1 N1             0.0718     1.7333    -0.3915 N.2     
   2 C2            -0.0166     0.2683    -0.3218 C.3     
   3 C3             1.3561    -0.1637     0.2312 C.3     
   4 N4             2.0654     1.1141     0.4110 N.pl3   
   5 C5             1.2303     2.1291     0.0215 C.2     
   6 C6            -1.1361    -0.1566     0.6306 C.3     
   7 C7             1.1980    -0.8744     1.5506 C.ar    
   8 C8             1.2355    -2.2553     1.6008 C.ar    
   9 C9             1.0905    -2.9072     2.8111 C.ar    
  10 C10            0.9084    -2.1781     3.9714 C.ar    
  11 C11            0.8717    -0.7971     3.9214 C.ar    
  12 C12            1.0211    -0.1451     2.7116 C.ar    
  13 C13            4.4109     1.0989    -0.2116 C.ar    
  14 C14            4.7400     2.1757    -1.0135 C.ar    
  15 C15            5.6439     2.0169    -2.0472 C.ar    
  16 C16            6.2191     0.7815    -2.2788 C.ar    
  17 C17            5.8907    -0.2952    -1.4763 C.ar    
  18 C18            4.9857    -0.1367    -0.4434 C.ar    
  19 C19            3.4302     1.2734     0.9192 C.3     
  20 C20            1.6222     3.5564     0.0700 C.ar    
  21 C21            1.3085     4.4049    -0.9913 C.ar    
  22 C22            1.6760     5.7340    -0.9401 C.ar    
  23 C23            2.3546     6.2250     0.1609 C.ar    
  24 C24            2.6685     5.3882     1.2167 C.ar    
  25 C25            2.3014     4.0585     1.1797 C.ar    
  26 C26           -0.2432    -0.3130    -1.6936 C.2     
  27 O27            0.2739    -1.3616    -1.9984 O.2     
  28 O28           -1.0195     0.3343    -2.5769 O.3     
  29 H29            1.8784    -0.7957    -0.4870 H       
  30 H30           -2.0904     0.2169     0.2592 H       
  31 H31           -1.1698    -1.2445     0.6894 H       
  32 H32           -0.9457     0.2551     1.6218 H       
  33 H33            1.3778    -2.8249     0.6943 H       
  34 H34            1.1191    -3.9861     2.8502 H       
  35 H35            0.7943    -2.6874     4.9169 H       
  36 H36            0.7291    -0.2275     4.8278 H       
  37 H37            0.9962     0.9339     2.6730 H       
  38 H38            4.2906     3.1410    -0.8326 H       
  39 H39            5.9004     2.8581    -2.6742 H       
  40 H40            6.9248     0.6573    -3.0868 H       
  41 H41            6.3396    -1.2606    -1.6576 H       
  42 H42            4.7286    -0.9780     0.1830 H       
  43 H43            3.5441     2.2688     1.3486 H       
  44 H44            3.6223     0.5228     1.6859 H       
  45 H45            0.7794     4.0226    -1.8517 H       
  46 H46            1.4336     6.3922    -1.7614 H       
  47 H47            2.6407     7.2658     0.1961 H       
  48 H48            3.1985     5.7772     2.0736 H       
  49 H49            2.5431     3.4072     2.0065 H       
  50 H50           -1.1353    -0.0776    -3.4441 H       
@<TRIPOS>BOND
   1    1    2 1
   2    1    5 2
   3    2    6 1
   4    2    3 1
   5    2   26 1
   6    3    4 1
   7    3    7 1
   8    3   29 1
   9    4    5 1
  10    4   19 1
  11    5   20 1
  12    6   30 1
  13    6   31 1
  14    6   32 1
  15    7    8 ar
  16    7   12 ar
  17    8    9 ar
  18    8   33 1
  19    9   10 ar
  20    9   34 1
  21   10   11 ar
  22   10   35 1
  23   11   12 ar
  24   11   36 1
  25   12   37 1
  26   13   14 ar
  27   13   18 ar
  28   13   19 1
  29   14   15 ar
  30   14   38 1
  31   15   16 ar
  32   15   39 1
  33   16   17 ar
  34   16   40 1
  35   17   18 ar
  36   17   41 1
  37   18   42 1
  38   19   43 1
  39   19   44 1
  40   20   21 ar
  41   20   25 ar
  42   21   22 ar
  43   21   45 1
  44   22   23 ar
  45   22   46 1
  46   23   24 ar
  47   23   47 1
  48   24   25 ar
  49   24   48 1
  50   25   49 1
  51   26   27 2
  52   26   28 1
  53   28   50 1

#	End of record

