#	Name: ASD02448098
#	Creating user name:	WinNT
#	Creation time:	15. 06. 2019 20:21

#	Modifying user name:	WinNT
#	Modification time:	15. 06. 2019 20:21

#	Program:	/corina/corina34_cracker 3.40 0067  02.08.2006

@<TRIPOS>MOLECULE
ASD02448098
  77   82    0    0    0
SMALL
NO_CHARGES


@<TRIPOS>ATOM
   1 C1             0.8025     1.0509    -0.6702 C.ar    
   2 C2             0.5994    -0.3124    -0.5576 C.ar    
   3 C3             1.6537    -1.1889    -0.7378 C.ar    
   4 C4             2.9136    -0.7051    -1.0309 C.ar    
   5 C5             3.1211     0.6637    -1.1447 C.ar    
   6 C6             2.0598     1.5414    -0.9631 C.ar    
   7 N7             4.3941     1.1565    -1.4406 N.am    
   8 C8             4.7420     2.4317    -2.0807 C.3     
   9 C9             6.2225     2.5849    -2.2180 C.2     
  10 N10            6.9398     1.5566    -1.7437 N.am    
  11 S11            5.8680     0.4345    -1.1412 S.o2    
  12 O12            6.7347     3.5630    -2.7198 O.2     
  13 O13            6.0469     0.3984     0.2680 O.2     
  14 O14            5.9440    -0.7102    -1.9798 O.2     
  15 N15           -1.5590    -0.9428    -1.4703 N.pl3   
  16 C16           -2.4006     0.0106    -1.9724 C.2     
  17 C17           -1.5799    -1.9905    -2.3231 C.2     
  18 N18           -2.3877    -1.7187    -3.3095 N.2     
  19 C19           -2.9132    -0.4904    -3.1265 C.2     
  20 C20           -3.8784     0.1912    -4.0239 C.ar    
  21 C21           -4.3243    -0.4432    -5.1832 C.ar    
  22 C22           -4.3469     1.4648    -3.7085 C.ar    
  23 C23           -5.2451     2.0946    -4.5462 C.ar    
  24 C24           -5.6809     1.4634    -5.6984 C.ar    
  25 C25           -5.2231     0.1957    -6.0145 C.ar    
  26 Cl26          -6.8107     2.2615    -6.7473 Cl      
  27 Cl27          -3.7503    -2.0326    -5.5807 Cl      
  28 C28           -0.7960    -3.2672    -2.1603 C.3     
  29 C29           -1.6669    -4.3122    -1.5117 C.ar    
  30 C30           -2.4336    -5.1542    -2.2967 C.ar    
  31 C31           -1.6922    -4.4295    -0.1337 C.ar    
  32 C32           -2.4876    -5.3851     0.4656 C.ar    
  33 C33           -3.2660    -6.2324    -0.3202 C.ar    
  34 C34           -3.2327    -6.1133    -1.7080 C.ar    
  35 C35           -4.1228    -7.2621     0.3185 C.ar    
  36 C36           -4.9012    -8.1094    -0.4673 C.ar    
  37 C37           -4.1474    -7.3888     1.7059 C.ar    
  38 C38           -4.9461    -8.3481     2.2946 C.ar    
  39 C39           -5.7209    -9.1832     1.5099 C.ar    
  40 C40           -5.6963    -9.0653     0.1319 C.ar    
  41 C41           -6.5903   -10.2295     2.1584 C.3     
  42 C42           -8.0531    -9.9793     1.7863 C.3     
  43 C43           -0.7739    -0.8439    -0.2374 C.3     
  44 C44           -6.1696   -11.6168     1.6693 C.3     
  45 C45           -8.9473   -10.9636     2.5428 C.3     
  46 H46           -0.0240     1.7325    -0.5333 H       
  47 H47            1.4917    -2.2529    -0.6488 H       
  48 H48            3.7366    -1.3902    -1.1711 H       
  49 H49            2.2177     2.6062    -1.0512 H       
  50 H50            4.2858     2.4707    -3.0699 H       
  51 H51            4.3526     3.2518    -1.4775 H       
  52 H52            7.9069     1.4815    -1.7480 H       
  53 H53           -2.6163     0.9746    -1.5360 H       
  54 H54           -4.0080     1.9584    -2.8096 H       
  55 H55           -5.6088     3.0817    -4.3019 H       
  56 H56           -5.5658    -0.2924    -6.9149 H       
  57 H57           -0.4710    -3.6213    -3.1386 H       
  58 H58            0.0759    -3.0808    -1.5333 H       
  59 H59           -2.4073    -5.0608    -3.3724 H       
  60 H60           -1.0881    -3.7725     0.4744 H       
  61 H61           -2.5063    -5.4761     1.5416 H       
  62 H62           -3.8343    -6.7673    -2.3218 H       
  63 H63           -4.8828    -8.0182    -1.5433 H       
  64 H64           -3.5423    -6.7378     2.3194 H       
  65 H65           -4.9660    -8.4472     3.3698 H       
  66 H66           -6.3035    -9.7196    -0.4760 H       
  67 H67           -6.4766   -10.1761     3.2412 H       
  68 H68           -8.3270    -8.9591     2.0550 H       
  69 H69           -8.1842   -10.1200     0.7134 H       
  70 H70           -0.6847    -1.8308     0.2167 H       
  71 H71           -1.2722    -0.1680     0.4575 H       
  72 H72           -6.2833   -11.6701     0.5865 H       
  73 H73           -5.1275   -11.7950     1.9344 H       
  74 H74           -6.7985   -12.3735     2.1383 H       
  75 H75           -9.9895   -10.7853     2.2776 H       
  76 H76           -8.6734   -11.9838     2.2740 H       
  77 H77           -8.8162   -10.8228     3.6157 H       
@<TRIPOS>BOND
   1    1    2 ar
   2    1    6 ar
   3    1   46 1
   4    2    3 ar
   5    2   43 1
   6    3    4 ar
   7    3   47 1
   8    4    5 ar
   9    4   48 1
  10    5    6 ar
  11    5    7 1
  12    6   49 1
  13    7    8 1
  14    7   11 am
  15    8    9 1
  16    8   50 1
  17    8   51 1
  18    9   10 am
  19    9   12 2
  20   10   11 am
  21   10   52 1
  22   11   13 2
  23   11   14 2
  24   15   16 1
  25   15   17 1
  26   15   43 1
  27   16   19 2
  28   16   53 1
  29   17   18 2
  30   17   28 1
  31   18   19 1
  32   19   20 1
  33   20   21 ar
  34   20   22 ar
  35   21   27 1
  36   21   25 ar
  37   22   23 ar
  38   22   54 1
  39   23   24 ar
  40   23   55 1
  41   24   25 ar
  42   24   26 1
  43   25   56 1
  44   28   29 1
  45   28   57 1
  46   28   58 1
  47   29   30 ar
  48   29   31 ar
  49   30   34 ar
  50   30   59 1
  51   31   32 ar
  52   31   60 1
  53   32   33 ar
  54   32   61 1
  55   33   34 ar
  56   33   35 1
  57   34   62 1
  58   35   36 ar
  59   35   37 ar
  60   36   40 ar
  61   36   63 1
  62   37   38 ar
  63   37   64 1
  64   38   39 ar
  65   38   65 1
  66   39   40 ar
  67   39   41 1
  68   40   66 1
  69   41   44 1
  70   41   42 1
  71   41   67 1
  72   42   45 1
  73   42   68 1
  74   42   69 1
  75   43   70 1
  76   43   71 1
  77   44   72 1
  78   44   73 1
  79   44   74 1
  80   45   75 1
  81   45   76 1
  82   45   77 1

#	End of record

