#	Name: ASD02690048
#	Creating user name:	WinNT
#	Creation time:	15. 06. 2019 20:26

#	Modifying user name:	WinNT
#	Modification time:	15. 06. 2019 20:26

#	Program:	/corina/corina34_cracker 3.40 0067  02.08.2006

@<TRIPOS>MOLECULE
ASD02690048
  27   28    0    0    0
SMALL
NO_CHARGES


@<TRIPOS>ATOM
   1 C1            -0.1663     1.5020    -0.5508 C.2     
   2 C2            -0.1417    -0.0048    -0.5467 C.3     
   3 O3             0.7367     2.1219    -1.0718 O.2     
   4 N4            -1.1946     2.1607     0.0195 N.am    
   5 F5             1.0124    -0.4541    -1.1975 F       
   6 F6            -0.1426    -0.4676     0.7736 F       
   7 F7            -1.2718    -0.4915    -1.2122 F       
   8 C8            -1.1623     3.5560     0.1195 C.ar    
   9 C9             0.0463     4.2075     0.3183 C.ar    
  10 C10            0.0752     5.5846     0.4163 C.ar    
  11 C11           -1.0975     6.3075     0.3166 C.ar    
  12 C12           -2.3082     5.6605     0.1184 C.ar    
  13 C13           -3.5610     6.4855     0.0164 C.3     
  14 C14           -4.6554     5.7364    -0.6768 C.2     
  15 C15           -4.6881     4.4448    -0.7707 C.2     
  16 C16           -3.6356     3.5493    -0.1964 C.3     
  17 C17           -2.3427     4.2873     0.0135 C.ar    
  18 H18           -1.9570     1.6675     0.3606 H       
  19 H19            0.9615     3.6394     0.3965 H       
  20 H20            1.0138     6.0959     0.5711 H       
  21 H21           -1.0716     7.3845     0.3938 H       
  22 H22           -3.8931     6.7545     1.0191 H       
  23 H23           -3.3435     7.3961    -0.5419 H       
  24 H24           -5.4604     6.3022    -1.1219 H       
  25 H25           -5.5187     3.9905    -1.2904 H       
  26 H26           -3.9849     3.1554     0.7580 H       
  27 H27           -3.4619     2.7191    -0.8810 H       
@<TRIPOS>BOND
   1    1    2 1
   2    1    3 2
   3    1    4 am
   4    2    5 1
   5    2    6 1
   6    2    7 1
   7    4    8 1
   8    4   18 1
   9    8    9 ar
  10    8   17 ar
  11    9   10 ar
  12    9   19 1
  13   10   11 ar
  14   10   20 1
  15   11   12 ar
  16   11   21 1
  17   12   13 1
  18   12   17 ar
  19   13   14 1
  20   13   22 1
  21   13   23 1
  22   14   15 2
  23   14   24 1
  24   15   16 1
  25   15   25 1
  26   16   17 1
  27   16   26 1
  28   16   27 1

#	End of record

