#	Name: ASD01150845
#	Creating user name:	WinNT
#	Creation time:	15. 06. 2019 19:05

#	Modifying user name:	WinNT
#	Modification time:	15. 06. 2019 19:05

#	Program:	/corina/corina34_cracker 3.40 0067  02.08.2006

@<TRIPOS>MOLECULE
ASD01150845
  56   58    0    0    0
SMALL
NO_CHARGES


@<TRIPOS>ATOM
   1 C1            -0.0157     1.3033     0.0092 C.2     
   2 N2             0.0021    -0.0041     0.0020 N.2     
   3 C3             1.2663    -0.4424    -0.0124 C.2     
   4 C4             2.0929     0.6734    -0.0143 C.2     
   5 N5             1.2465     1.7741    -0.0003 N.pl3   
   6 C6             3.5082     0.6862    -0.0273 C.2     
   7 O7             4.1261    -0.3622    -0.0389 O.2     
   8 O8             4.1725     1.8611    -0.0269 O.3     
   9 C9             1.6326     3.1214     0.0028 C.ar    
  10 C10            2.3226     3.6442     1.0883 C.ar    
  11 C11            2.7026     4.9719     1.0893 C.ar    
  12 C12            2.3959     5.7817     0.0086 C.ar    
  13 C13            1.7073     5.2622    -1.0748 C.ar    
  14 C14            1.3306     3.9336    -1.0821 C.ar    
  15 F15            2.7685     7.0803     0.0114 F       
  16 C16           -1.2593     2.1543     0.0200 C.3     
  17 C17           -1.6727     2.4350     1.4661 C.3     
  18 N18            1.6764    -1.7698    -0.0230 N.am    
  19 C19            0.7603    -2.7582    -0.0197 C.2     
  20 C20            1.1960    -4.1684    -0.0310 C.ar    
  21 C21            0.2300    -5.1819    -0.0272 C.ar    
  22 C22            0.5956    -6.4920    -0.0374 C.ar    
  23 C23            2.0202    -6.8356    -0.0528 C.ar    
  24 C24            3.0025    -5.7481    -0.0568 C.ar    
  25 C25            2.5652    -4.4601    -0.0509 C.ar    
  26 O26           -0.4252    -2.4883    -0.0073 O.2     
  27 N27            2.4104    -8.0985    -0.0625 N.2     
  28 N28            3.5063    -8.3480    -0.0743 N.1     
  29 N29            4.6022    -8.5976    -0.0862 N.pl3   
  30 C30            5.6001     1.7992    -0.0405 C.3     
  31 C31            6.0667     1.0636    -1.2982 C.3     
  32 C32            6.1721     3.2183    -0.0379 C.3     
  33 C33            6.0899     1.0496     1.2001 C.3     
  34 H34            2.5617     3.0131     1.9315 H       
  35 H35            3.2391     5.3790     1.9337 H       
  36 H36            1.4687     5.8954    -1.9166 H       
  37 H37            0.7978     3.5276    -1.9293 H       
  38 H38           -1.0592     3.0966    -0.4901 H       
  39 H39           -2.0644     1.6276    -0.4924 H       
  40 H40           -2.5723     3.0505     1.4739 H       
  41 H41           -1.8728     1.4927     1.9762 H       
  42 H42           -0.8676     2.9617     1.9784 H       
  43 H43            2.6222    -1.9851    -0.0329 H       
  44 H44           -0.8178    -4.9203    -0.0158 H       
  45 H45           -0.1544    -7.2691    -0.0337 H       
  46 H46            4.0601    -5.9665    -0.0678 H       
  47 H47            3.2828    -3.6529    -0.0574 H       
  48 H48            5.7178     1.5976    -2.1821 H       
  49 H49            7.1557     1.0163    -1.3086 H       
  50 H50            5.6592     0.0526    -1.3001 H       
  51 H51            5.8397     3.7424     0.8582 H       
  52 H52            7.2611     3.1711    -0.0482 H       
  53 H53            5.8232     3.7523    -0.9217 H       
  54 H54            5.6823     0.0387     1.1982 H       
  55 H55            7.1788     1.0024     1.1897 H       
  56 H56            5.7574     1.5737     2.0961 H       
@<TRIPOS>BOND
   1    1    2 2
   2    1    5 1
   3    1   16 1
   4    2    3 1
   5    3    4 2
   6    3   18 1
   7    4    5 1
   8    4    6 1
   9    5    9 1
  10    6    7 2
  11    6    8 1
  12    8   30 1
  13    9   10 ar
  14    9   14 ar
  15   10   11 ar
  16   10   34 1
  17   11   12 ar
  18   11   35 1
  19   12   13 ar
  20   12   15 1
  21   13   14 ar
  22   13   36 1
  23   14   37 1
  24   16   17 1
  25   16   38 1
  26   16   39 1
  27   17   40 1
  28   17   41 1
  29   17   42 1
  30   18   19 am
  31   18   43 1
  32   19   20 1
  33   19   26 2
  34   20   21 ar
  35   20   25 ar
  36   21   22 ar
  37   21   44 1
  38   22   23 ar
  39   22   45 1
  40   23   24 ar
  41   23   27 1
  42   24   25 ar
  43   24   46 1
  44   25   47 1
  45   27   28 2
  46   28   29 2
  47   30   31 1
  48   30   33 1
  49   30   32 1
  50   31   48 1
  51   31   49 1
  52   31   50 1
  53   32   51 1
  54   32   52 1
  55   32   53 1
  56   33   54 1
  57   33   55 1
  58   33   56 1

#	End of record

