#	Name: ASD01881564
#	Creating user name:	WinNT
#	Creation time:	15. 06. 2019 19:42

#	Modifying user name:	WinNT
#	Modification time:	15. 06. 2019 19:42

#	Program:	/corina/corina34_cracker 3.40 0067  02.08.2006

@<TRIPOS>MOLECULE
ASD01881564
  53   57    0    0    0
SMALL
NO_CHARGES


@<TRIPOS>ATOM
   1 C1             0.0193     1.2654    -0.2454 C.2     
   2 C2            -0.0414    -0.0496     0.2471 C.2     
   3 C3            -1.2335    -0.6270     0.5055 C.2     
   4 N4            -2.3944     0.0565     0.2931 N.pl3   
   5 C5            -2.3670     1.3429    -0.1871 C.2     
   6 C6            -1.1305     1.9607    -0.4566 C.2     
   7 C7            -3.7095    -0.2521     0.4563 C.2     
   8 N8            -4.4069     0.7930     0.0926 N.2     
   9 N9            -3.6247     1.7408    -0.2892 N.2     
  10 C10           -4.2617    -1.5594     0.9631 C.3     
  11 C11            1.3534     1.9047    -0.5327 C.3     
  12 C12           -4.3989    -1.4991     2.4858 C.3     
  13 C13            3.5159     2.3493     0.4638 C.3     
  14 N14            2.0950     2.0759     0.7238 N.3     
  15 C15           -5.0549    -2.6922     3.1838 C.3     
  16 C16           -3.5470    -2.4659     3.3107 C.3     
  17 C17            4.2607     2.4612     1.7968 C.3     
  18 O18            3.6504     3.4796     2.5941 O.3     
  19 C19            2.2663     3.2448     2.8672 C.3     
  20 C20            1.5013     3.1409     1.5451 C.3     
  21 C21            4.1044     1.2247    -0.3486 C.ar    
  22 C22            4.9981     1.5013    -1.3662 C.ar    
  23 C23            5.5379     0.4697    -2.1114 C.ar    
  24 C24            5.1842    -0.8385    -1.8387 C.ar    
  25 C25            4.2911    -1.1152    -0.8205 C.ar    
  26 C26            3.7547    -0.0839    -0.0725 C.ar    
  27 C27           -1.0822     3.3718    -0.9834 C.3     
  28 F28           -0.7680     3.3501    -2.3465 F       
  29 F29           -2.3288     3.9803    -0.8018 F       
  30 F30           -0.1050     4.0949    -0.2910 F       
  31 H31            0.8711    -0.6011     0.4194 H       
  32 H32           -1.2684    -1.6382     0.8831 H       
  33 H33           -5.2401    -1.7380     0.5170 H       
  34 H34           -3.5851    -2.3695     0.6911 H       
  35 H35            1.9242     1.2668    -1.2075 H       
  36 H36            1.1972     2.8780    -0.9979 H       
  37 H37           -4.5829    -0.5088     2.9023 H       
  38 H38            3.6117     3.2854    -0.0863 H       
  39 H39           -5.6701    -2.4868     4.0598 H       
  40 H40           -5.3887    -3.5200     2.5583 H       
  41 H41           -2.8888    -3.1449     2.7686 H       
  42 H42           -3.1702    -2.1117     4.2702 H       
  43 H43            4.2103     1.5079     2.3229 H       
  44 H44            5.3029     2.7204     1.6107 H       
  45 H45            2.1580     2.3144     3.4245 H       
  46 H46            1.8661     4.0708     3.4552 H       
  47 H47            1.5649     4.0897     1.0122 H       
  48 H48            0.4564     2.9053     1.7468 H       
  49 H49            5.2745     2.5234    -1.5792 H       
  50 H50            6.2356     0.6859    -2.9069 H       
  51 H51            5.6054    -1.6444    -2.4214 H       
  52 H52            4.0146    -2.1372    -0.6077 H       
  53 H53            3.0570    -0.3000     0.7231 H       
@<TRIPOS>BOND
   1    1    2 1
   2    1   11 1
   3    1    6 2
   4    2    3 2
   5    2   31 1
   6    3    4 1
   7    3   32 1
   8    4    5 1
   9    4    7 1
  10    5    6 1
  11    5    9 2
  12    6   27 1
  13    7    8 2
  14    7   10 1
  15    8    9 1
  16   10   12 1
  17   10   33 1
  18   10   34 1
  19   11   14 1
  20   11   35 1
  21   11   36 1
  22   12   15 1
  23   12   16 1
  24   12   37 1
  25   13   14 1
  26   13   17 1
  27   13   21 1
  28   13   38 1
  29   14   20 1
  30   15   16 1
  31   15   39 1
  32   15   40 1
  33   16   41 1
  34   16   42 1
  35   17   18 1
  36   17   43 1
  37   17   44 1
  38   18   19 1
  39   19   20 1
  40   19   45 1
  41   19   46 1
  42   20   47 1
  43   20   48 1
  44   21   22 ar
  45   21   26 ar
  46   22   23 ar
  47   22   49 1
  48   23   24 ar
  49   23   50 1
  50   24   25 ar
  51   24   51 1
  52   25   26 ar
  53   25   52 1
  54   26   53 1
  55   27   28 1
  56   27   29 1
  57   27   30 1

#	End of record

