#	Name: ASD01920056
#	Creating user name:	WinNT
#	Creation time:	15. 06. 2019 20:11

#	Modifying user name:	WinNT
#	Modification time:	15. 06. 2019 20:11

#	Program:	/corina/corina34_cracker 3.40 0067  02.08.2006

@<TRIPOS>MOLECULE
ASD01920056
  34   36    0    0    0
SMALL
NO_CHARGES


@<TRIPOS>ATOM
   1 C1            -0.0061     1.3655     0.0458 C.ar    
   2 C2            -0.0767     0.1097    -0.5354 C.ar    
   3 C3             1.0440    -0.4133    -1.1618 C.ar    
   4 C4             2.2035     0.3453    -1.1837 C.ar    
   5 C5             2.2025     1.6004    -0.5788 C.ar    
   6 N6             1.1075     2.0645     0.0105 N.ar    
   7 C7             3.4339     2.4236    -0.5932 C.2     
   8 O8             4.4395     2.0034    -1.1310 O.2     
   9 N9             3.4392     3.6386    -0.0098 N.am    
  10 C10            4.6303     4.3688     0.0757 C.ar    
  11 C11            4.6052     5.7535    -0.0285 C.ar    
  12 C12            5.8367     3.7093     0.2705 C.ar    
  13 C13            7.0126     4.4316     0.3553 C.ar    
  14 C14            6.9861     5.8163     0.2455 C.ar    
  15 C15            5.7802     6.4742     0.0558 C.ar    
  16 O16            8.1427     6.5272     0.3293 O.3     
  17 F17            8.1869     3.7911     0.5452 F       
  18 C18            8.9259     6.5996    -0.7735 C.ar    
  19 N19           10.1029     7.1990    -0.6911 N.ar    
  20 C20           10.8926     7.2874    -1.7488 C.ar    
  21 C21           10.4735     6.7427    -2.9524 C.ar    
  22 C22            9.2351     6.1223    -3.0025 C.ar    
  23 N23            8.4978     6.0645    -1.9056 N.ar    
  24 H24           -0.8786     1.7778     0.5306 H       
  25 H25           -0.9959    -0.4563    -0.5006 H       
  26 H26            1.0142    -1.3900    -1.6218 H       
  27 H27            3.0953    -0.0312    -1.6626 H       
  28 H28            2.6175     4.0069     0.3509 H       
  29 H29            3.6665     6.2668    -0.1760 H       
  30 H30            5.8564     2.6329     0.3561 H       
  31 H31            5.7603     7.5507    -0.0299 H       
  32 H32           11.8519     7.7781    -1.6753 H       
  33 H33           11.0978     6.8008    -3.8317 H       
  34 H34            8.8782     5.6879    -3.9247 H       
@<TRIPOS>BOND
   1    1    2 ar
   2    1    6 ar
   3    1   24 1
   4    2    3 ar
   5    2   25 1
   6    3    4 ar
   7    3   26 1
   8    4    5 ar
   9    4   27 1
  10    5    6 ar
  11    5    7 1
  12    7    8 2
  13    7    9 am
  14    9   10 1
  15    9   28 1
  16   10   11 ar
  17   10   12 ar
  18   11   15 ar
  19   11   29 1
  20   12   13 ar
  21   12   30 1
  22   13   14 ar
  23   13   17 1
  24   14   15 ar
  25   14   16 1
  26   15   31 1
  27   16   18 1
  28   18   19 ar
  29   18   23 ar
  30   19   20 ar
  31   20   21 ar
  32   20   32 1
  33   21   22 ar
  34   21   33 1
  35   22   23 ar
  36   22   34 1

#	End of record

