#	Name: ASD02198559
#	Creating user name:	WinNT
#	Creation time:	15. 06. 2019 20:19

#	Modifying user name:	WinNT
#	Modification time:	15. 06. 2019 20:19

#	Program:	/corina/corina34_cracker 3.40 0067  02.08.2006

@<TRIPOS>MOLECULE
ASD02198559
  48   52    0    0    0
SMALL
NO_CHARGES


@<TRIPOS>ATOM
   1 C1             0.0072     1.5098     0.1333 C.2     
   2 C2             0.0745     0.1698    -0.0949 C.2     
   3 N3            -1.0518    -0.5605    -0.2642 N.pl3   
   4 N4            -2.2298    -0.0571    -0.2233 N.2     
   5 C5            -2.4375     1.2259    -0.0103 C.2     
   6 C6            -1.2791     2.1067     0.1921 C.2     
   7 C7            -0.9242    -1.9344    -0.4960 C.ar    
   8 C8            -0.7952    -3.7811    -2.0262 C.ar    
   9 C9            -0.6749    -4.6590    -0.9580 C.ar    
  10 C10           -0.6816    -4.1726     0.3445 C.ar    
  11 C11           -0.8078    -2.8119     0.5739 C.ar    
  12 C12           -3.8107     1.7688     0.0293 C.2     
  13 N13           -4.3729     2.4814     1.0509 N.pl3   
  14 N14           -5.6845     2.8000     0.6775 N.2     
  15 C15           -5.9147     2.3073    -0.5134 C.2     
  16 C16           -4.7638     1.6572    -0.9591 C.2     
  17 C17           -3.7491     2.8305     2.2554 C.ar    
  18 C18           -2.9556     1.9059     2.9216 C.ar    
  19 O19           -1.4171     3.3047     0.3938 O.2     
  20 C20           -3.9184     4.1039     2.7830 C.ar    
  21 C21           -3.3020     4.4451     3.9710 C.ar    
  22 C22           -2.5170     3.5202     4.6348 C.ar    
  23 C23           -2.3419     2.2532     4.1091 C.ar    
  24 C24           -0.9196    -2.4235    -1.7985 C.ar    
  25 F25           -1.0370    -1.5716    -2.8405 F       
  26 O26            1.1345     2.2511     0.3050 O.3     
  27 C27            2.3829     1.5592     0.2344 C.3     
  28 O28           -0.5606    -5.9935    -1.2020 O.3     
  29 C29           -0.0675    -6.8042    -0.1300 C.3     
  30 C30           -0.8065    -6.4046     1.1542 C.3     
  31 O31           -0.5574    -5.0184     1.4045 O.3     
  32 F32           -0.3060    -8.1538    -0.4110 F       
  33 F33            1.3058    -6.5904     0.0299 F       
  34 F34           -2.1806    -6.6106     0.9915 F       
  35 F35           -0.3374    -7.1711     2.2265 F       
  36 H36            1.0379    -0.3160    -0.1418 H       
  37 H37           -0.7875    -4.1592    -3.0378 H       
  38 H38           -0.8153    -2.4335     1.5854 H       
  39 H39           -6.8413     2.3930    -1.0616 H       
  40 H40           -4.6437     1.1515    -1.9058 H       
  41 H41           -2.8188     0.9162     2.5116 H       
  42 H42           -4.5310     4.8267     2.2648 H       
  43 H43           -3.4329     5.4353     4.3816 H       
  44 H44           -2.0361     3.7894     5.5636 H       
  45 H45           -1.7283     1.5331     4.6299 H       
  46 H46            2.4851     1.0933    -0.7456 H       
  47 H47            3.1988     2.2655     0.3879 H       
  48 H48            2.4168     0.7913     1.0072 H       
@<TRIPOS>BOND
   1    1    2 2
   2    1   26 1
   3    1    6 1
   4    2    3 1
   5    2   36 1
   6    3    4 1
   7    3    7 1
   8    4    5 2
   9    5    6 1
  10    5   12 1
  11    6   19 2
  12    7   24 ar
  13    7   11 ar
  14    8    9 ar
  15    8   24 ar
  16    8   37 1
  17    9   10 ar
  18    9   28 1
  19   10   11 ar
  20   10   31 1
  21   11   38 1
  22   12   13 1
  23   12   16 2
  24   13   14 1
  25   13   17 1
  26   14   15 2
  27   15   16 1
  28   15   39 1
  29   16   40 1
  30   17   20 ar
  31   17   18 ar
  32   18   23 ar
  33   18   41 1
  34   20   21 ar
  35   20   42 1
  36   21   22 ar
  37   21   43 1
  38   22   23 ar
  39   22   44 1
  40   23   45 1
  41   24   25 1
  42   26   27 1
  43   27   46 1
  44   27   47 1
  45   27   48 1
  46   28   29 1
  47   29   30 1
  48   29   32 1
  49   29   33 1
  50   30   31 1
  51   30   34 1
  52   30   35 1

#	End of record

