#	Name: ASD03331363
#	Creating user name:	WinNT
#	Creation time:	15. 06. 2019 20:39

#	Modifying user name:	WinNT
#	Modification time:	15. 06. 2019 20:39

#	Program:	/corina/corina34_cracker 3.40 0067  02.08.2006

@<TRIPOS>MOLECULE
ASD03331363
  43   45    0    0    0
SMALL
NO_CHARGES


@<TRIPOS>ATOM
   1 C1            -0.0693     1.4991    -0.1818 C.3     
   2 C2            -0.0199    -0.0071    -0.0812 C.2     
   3 C3             1.0802    -0.7462    -0.3646 C.2     
   4 C4             2.4030    -0.1756    -0.8101 C.3     
   5 C5             2.1800     1.2566    -1.3117 C.3     
   6 N6             1.3157     1.9712    -0.3594 N.am    
   7 N7            -0.5042    -2.1538     0.2278 N.2     
   8 N8            -1.0040    -0.8444     0.2875 N.pl3   
   9 C9             0.7527    -2.0966    -0.1659 C.2     
  10 C10            1.7778     3.0316     0.3323 C.2     
  11 O11            2.9222     3.4082     0.1742 O.2     
  12 O12            0.9714     3.6737     1.1984 O.3     
  13 C13            1.6599    -3.2542    -0.3643 C.ar    
  14 C14            1.2223    -4.3732    -1.0740 C.ar    
  15 C15            2.0716    -5.4485    -1.2562 C.ar    
  16 C16            3.3528    -5.4167    -0.7367 C.ar    
  17 C17            3.7922    -4.3085    -0.0314 C.ar    
  18 C18            2.9528    -3.2253     0.1522 C.ar    
  19 F19            5.0449    -4.2841     0.4739 F       
  20 F20           -0.0292    -4.4058    -1.5817 F       
  21 C21            1.5362     4.8072     1.9086 C.3     
  22 C22            1.9853     5.8678     0.9014 C.3     
  23 C23            0.4790     5.4037     2.8400 C.3     
  24 C24            2.7394     4.3446     2.7327 C.3     
  25 H25           -0.6746     1.7940    -1.0389 H       
  26 H26           -0.4898     1.9183     0.7323 H       
  27 H27            3.0975    -0.1645     0.0299 H       
  28 H28            2.8111    -0.7855    -1.6160 H       
  29 H29            3.1389     1.7692    -1.3883 H       
  30 H30            1.7010     1.2295    -2.2904 H       
  31 H31           -1.9022    -0.5884     0.5493 H       
  32 H32            1.7338    -6.3151    -1.8050 H       
  33 H33            4.0130    -6.2591    -0.8811 H       
  34 H34            3.2979    -2.3601     0.6987 H       
  35 H35            1.1281     6.1974     0.3143 H       
  36 H36            2.4093     6.7187     1.4346 H       
  37 H37            2.7385     5.4429     0.2379 H       
  38 H38            0.1591     4.6481     3.5575 H       
  39 H39            0.9030     6.2546     3.3732 H       
  40 H40           -0.3782     5.7332     2.2529 H       
  41 H41            3.4926     3.9197     2.0692 H       
  42 H42            3.1634     5.1956     3.2659 H       
  43 H43            2.4195     3.5891     3.4503 H       
@<TRIPOS>BOND
   1    1    2 1
   2    1    6 1
   3    1   25 1
   4    1   26 1
   5    2    3 2
   6    2    8 1
   7    3    4 1
   8    3    9 1
   9    4    5 1
  10    4   27 1
  11    4   28 1
  12    5    6 1
  13    5   29 1
  14    5   30 1
  15    6   10 am
  16    7    8 1
  17    7    9 2
  18    8   31 1
  19    9   13 1
  20   10   11 2
  21   10   12 1
  22   12   21 1
  23   13   14 ar
  24   13   18 ar
  25   14   15 ar
  26   14   20 1
  27   15   16 ar
  28   15   32 1
  29   16   17 ar
  30   16   33 1
  31   17   18 ar
  32   17   19 1
  33   18   34 1
  34   21   22 1
  35   21   24 1
  36   21   23 1
  37   22   35 1
  38   22   36 1
  39   22   37 1
  40   23   38 1
  41   23   39 1
  42   23   40 1
  43   24   41 1
  44   24   42 1
  45   24   43 1

#	End of record

