#	Name: ASD03331214
#	Creating user name:	WinNT
#	Creation time:	15. 06. 2019 20:38

#	Modifying user name:	WinNT
#	Modification time:	15. 06. 2019 20:38

#	Program:	/corina/corina34_cracker 3.40 0067  02.08.2006

@<TRIPOS>MOLECULE
ASD03331214
  47   49    0    0    0
SMALL
NO_CHARGES


@<TRIPOS>ATOM
   1 N1            -0.0459     1.4956     0.5699 N.am    
   2 C2             0.0019     0.1506     1.1633 C.3     
   3 C3             0.5966    -0.8151     0.1328 C.3     
   4 N4             1.8894    -0.2950    -0.3321 N.3     
   5 C5             1.7287     0.9910    -1.0237 C.3     
   6 C6             1.1805     2.0309    -0.0406 C.3     
   7 C7            -1.1849     2.2161     0.5803 C.2     
   8 O8            -2.2139     1.7207     0.9975 O.2     
   9 N9            -1.1831     3.4859     0.1284 N.am    
  10 C10           -2.3869     4.1973     0.0328 C.ar    
  11 C11           -2.4019     5.5688     0.2481 C.ar    
  12 C12           -3.5883     6.2693     0.1533 C.ar    
  13 C13           -4.7647     5.6030    -0.1569 C.ar    
  14 C14           -4.7504     4.2326    -0.3716 C.ar    
  15 C15           -3.5637     3.5318    -0.2828 C.ar    
  16 C16            2.5723    -1.2724    -1.1901 C.3     
  17 C17            3.7648    -0.6216    -1.8424 C.ar    
  18 C18            4.9974    -0.6547    -1.2179 C.ar    
  19 C19            6.0919    -0.0576    -1.8153 C.ar    
  20 C20            5.9538     0.5728    -3.0383 C.ar    
  21 C21            4.7194     0.6055    -3.6640 C.ar    
  22 C22            3.6266     0.0033    -3.0678 C.ar    
  23 Br23           4.5291     1.4677    -5.3362 Br      
  24 Br24           7.4505     1.3902    -3.8554 Br      
  25 O25           -5.9324     6.2933    -0.2501 O.3     
  26 C26           -7.1053     5.5435    -0.5729 C.3     
  27 H27            0.6285     0.1660     2.0550 H       
  28 H28           -1.0062    -0.1697     1.4262 H       
  29 H29            0.7419    -1.7929     0.5921 H       
  30 H30           -0.0838    -0.9080    -0.7137 H       
  31 H31            2.6951     1.3232    -1.4030 H       
  32 H32            1.0326     0.8730    -1.8541 H       
  33 H33            0.9515     2.9537    -0.5736 H       
  34 H34            1.9203     2.2269     0.7354 H       
  35 H35           -0.3488     3.9073    -0.1307 H       
  36 H36           -1.4861     6.0877     0.4900 H       
  37 H37           -3.6002     7.3361     0.3211 H       
  38 H38           -5.6667     3.7143    -0.6124 H       
  39 H39           -3.5519     2.4657    -0.4548 H       
  40 H40            2.9043    -2.1168    -0.5861 H       
  41 H41            1.8844    -1.6241    -1.9591 H       
  42 H42            5.1055    -1.1469    -0.2627 H       
  43 H43            7.0547    -0.0831    -1.3265 H       
  44 H44            2.6633     0.0286    -3.5555 H       
  45 H45           -6.9727     5.0603    -1.5409 H       
  46 H46           -7.2736     4.7851     0.1917 H       
  47 H47           -7.9643     6.2132    -0.6157 H       
@<TRIPOS>BOND
   1    1    2 1
   2    1    6 1
   3    1    7 am
   4    2    3 1
   5    2   27 1
   6    2   28 1
   7    3    4 1
   8    3   29 1
   9    3   30 1
  10    4    5 1
  11    4   16 1
  12    5    6 1
  13    5   31 1
  14    5   32 1
  15    6   33 1
  16    6   34 1
  17    7    8 2
  18    7    9 am
  19    9   10 1
  20    9   35 1
  21   10   11 ar
  22   10   15 ar
  23   11   12 ar
  24   11   36 1
  25   12   13 ar
  26   12   37 1
  27   13   14 ar
  28   13   25 1
  29   14   15 ar
  30   14   38 1
  31   15   39 1
  32   16   17 1
  33   16   40 1
  34   16   41 1
  35   17   18 ar
  36   17   22 ar
  37   18   19 ar
  38   18   42 1
  39   19   20 ar
  40   19   43 1
  41   20   21 ar
  42   20   24 1
  43   21   22 ar
  44   21   23 1
  45   22   44 1
  46   25   26 1
  47   26   45 1
  48   26   46 1
  49   26   47 1

#	End of record

