#	Name: ASD05060024
#	Creating user name:	WinNT
#	Creation time:	15. 06. 2019 20:56

#	Modifying user name:	WinNT
#	Modification time:	15. 06. 2019 20:56

#	Program:	/corina/corina34_cracker 3.40 0067  02.08.2006

@<TRIPOS>MOLECULE
ASD05060024
 126  126    0    0    0
SMALL
NO_CHARGES


@<TRIPOS>ATOM
   1 N1            -2.5894     6.0335    -2.3892 N.3     
   2 N2            -2.4606     4.8986    -3.2888 N.3     
   3 C3            -3.7734     4.3082    -3.5824 C.3     
   4 C4            -4.1379     3.3295    -2.4959 C.2     
   5 N5            -5.4114     3.3389    -2.0020 N.am    
   6 C6            -5.6874     2.3473    -0.9378 C.3     
   7 C7            -6.8779     2.8153    -0.1409 C.2     
   8 N8            -6.9520     2.5047     1.1823 N.am    
   9 C9            -8.1408     2.9920     1.9098 C.3     
  10 C10           -7.6900     3.6983     3.1622 C.2     
  11 N11           -8.3585     4.8205     3.5611 N.am    
  12 C12           -7.8566     5.4518     4.8026 C.3     
  13 C13           -7.5715     6.9051     4.5233 C.2     
  14 N14           -6.5747     7.5273     5.2104 N.am    
  15 C15           -6.3415     8.9503     4.8933 C.3     
  16 C16           -4.8798     9.1463     4.5832 C.2     
  17 N17           -4.5052    10.2260     3.8351 N.am    
  18 C18           -3.0530    10.3443     3.5723 C.3     
  19 C19           -2.8435    10.4878     2.0867 C.2     
  20 C20           -1.7585     9.7277     1.4123 C.2     
  21 C21           -1.5512     9.8689    -0.0739 C.3     
  22 N22           -1.2003     8.5484    -0.6336 N.am    
  23 C23           -1.7305     8.2415    -1.8490 C.2     
  24 C24           -1.4108     6.9065    -2.4712 C.3     
  25 O25           -2.4503     9.0310    -2.4230 O.2     
  26 O26           -1.0429     8.9973     2.0552 O.2     
  27 O27           -3.5574    11.2201     1.4441 O.2     
  28 O28           -4.0512     8.3600     4.9906 O.2     
  29 O29           -8.2208     7.5115     3.6977 O.2     
  30 O30           -6.7506     3.2782     3.8040 O.2     
  31 O31           -7.7580     3.4594    -0.6714 O.2     
  32 O32           -3.3155     2.5475    -2.0680 O.2     
  33 C33           -4.8277     5.4151    -3.6465 C.3     
  34 C34           -4.6102     6.2541    -4.9073 C.3     
  35 C35           -5.8263     7.1536    -5.1374 C.3     
  36 C36           -3.3608     7.1201    -4.7344 C.3     
  37 C37           -0.2442     6.2605    -1.7211 C.3     
  38 O38            0.1244     5.0427    -2.3716 O.3     
  39 C39           -2.4997    11.5768     4.2904 C.3     
  40 C40           -2.6210    11.3829     5.8032 C.3     
  41 C41           -2.0760    12.5968     6.5106 C.2     
  42 O42           -1.6358    13.5222     5.8704 O.2     
  43 O43           -2.0797    12.6501     7.8518 O.3     
  44 C44           -8.9199     3.9663     1.0241 C.3     
  45 C45           -7.9875     5.0838     0.5521 C.3     
  46 C46           -7.9283     6.1819     1.6158 C.3     
  47 C47           -9.4758     3.2191    -0.1899 C.3     
  48 C48           -5.9945     0.9881    -1.5695 C.3     
  49 C49           -4.7497     0.4684    -2.2916 C.3     
  50 C50           -5.0567    -0.8908    -2.9233 C.3     
  51 C51           -3.8120    -1.4105    -3.6454 C.3     
  52 N52           -4.1067    -2.7155    -4.2519 N.3     
  53 C53           -7.1813     9.3491     3.6782 C.3     
  54 C54           -6.7186     8.5740     2.4715 C.2     
  55 O55           -5.9044     7.6841     2.5980 O.2     
  56 N56           -7.2097     8.8696     1.2517 N.am    
  57 C57           -9.1244     3.8871     6.2495 C.2     
  58 C58           -8.9159     5.3383     5.9008 C.3     
  59 O59           -8.4908     3.0314     5.6782 O.2     
  60 O60          -10.0140     3.5450     7.1947 O.3     
  61 C61           -3.9234     9.3414    -0.5669 C.2     
  62 C62           -2.8393    10.3761    -0.7254 C.3     
  63 O63           -3.6723     8.2771    -0.0531 O.2     
  64 O64           -5.1681     9.6022    -0.9966 O.3     
  65 H65           -3.4356     6.5498    -2.5772 H       
  66 H66           -1.9848     5.1628    -4.1384 H       
  67 H67           -3.7325     3.7893    -4.5401 H       
  68 H68           -6.0886     3.9529    -2.3265 H       
  69 H69           -4.8199     2.2619    -0.2834 H       
  70 H70           -6.2594     1.9893     1.6246 H       
  71 H71           -8.7775     2.1481     2.1755 H       
  72 H72           -9.1106     5.1796     3.0647 H       
  73 H73           -6.9408     4.9542     5.1216 H       
  74 H74           -6.0445     7.0596     5.8744 H       
  75 H75           -6.6189     9.5655     5.7492 H       
  76 H76           -5.1469    10.8711     3.4988 H       
  77 H77           -2.5425     9.4498     3.9291 H       
  78 H78           -0.7414    10.5733    -0.2644 H       
  79 H79           -0.6212     7.9313    -0.1595 H       
  80 H80           -1.1363     7.0492    -3.5164 H       
  81 H81           -5.8218     4.9688    -3.6740 H       
  82 H82           -4.7397     6.0521    -2.7664 H       
  83 H83           -4.4790     5.5941    -5.7648 H       
  84 H84           -5.9575     7.8136    -4.2799 H       
  85 H85           -5.6714     7.7514    -6.0356 H       
  86 H86           -6.7164     6.5367    -5.2606 H       
  87 H87           -3.4455     7.7008    -3.8158 H       
  88 H88           -2.4800     6.4803    -4.6798 H       
  89 H89           -3.2668     7.7961    -5.5842 H       
  90 H90            0.6066     6.9418    -1.7162 H       
  91 H91           -0.5452     6.0477    -0.6952 H       
  92 H92            0.8597     4.5780    -1.9491 H       
  93 H93           -1.4514    11.7123     4.0244 H       
  94 H94           -3.0675    12.4575     3.9904 H       
  95 H95           -3.6693    11.2474     6.0693 H       
  96 H96           -2.0532    10.5021     6.1033 H       
  97 H97           -1.7198    13.4492     8.2604 H       
  98 H98           -9.7433     4.3966     1.5941 H       
  99 H99           -6.9881     4.6794     0.3913 H       
 100 H100          -8.3648     5.5019    -0.3811 H       
 101 H101          -7.4590     7.0709     1.1945 H       
 102 H102          -8.9390     6.4252     1.9435 H       
 103 H103          -7.3447     5.8319     2.4673 H       
 104 H104         -10.4520     2.8014     0.0563 H       
 105 H105          -9.5769     3.9101    -1.0268 H       
 106 H106          -8.7945     2.4136    -0.4640 H       
 107 H107          -6.2838     0.2825    -0.7906 H       
 108 H108          -6.8106     1.0955    -2.2839 H       
 109 H109          -4.4604     1.1740    -3.0704 H       
 110 H110          -3.9335     0.3610    -1.5771 H       
 111 H111          -5.3461    -1.5964    -2.1444 H       
 112 H112          -5.8729    -0.7834    -3.6377 H       
 113 H113          -3.5226    -0.7049    -4.4242 H       
 114 H114          -2.9958    -1.5179    -2.9309 H       
 115 H115          -4.9019    -2.6556    -4.8701 H       
 116 H116          -3.2996    -3.0803    -4.7352 H       
 117 H117          -8.2304     9.1264     3.8727 H       
 118 H118          -7.0652    10.4166     3.4907 H       
 119 H119          -7.8609     9.5814     1.1505 H       
 120 H120          -6.9119     8.3707     0.4750 H       
 121 H121          -8.5815     5.8801     6.7855 H       
 122 H122          -9.8540     5.7652     5.5463 H       
 123 H123         -10.1129     2.6019     7.3837 H       
 124 H124          -3.1491    11.3036    -0.2440 H       
 125 H125          -2.6630    10.5582    -1.7855 H       
 126 H126          -5.8296     8.9078    -0.8733 H       
@<TRIPOS>BOND
   1    1    2 1
   2    1   24 1
   3    1   65 1
   4    2    3 1
   5    2   66 1
   6    3    4 1
   7    3   33 1
   8    3   67 1
   9    4    5 am
  10    4   32 2
  11    5    6 1
  12    5   68 1
  13    6    7 1
  14    6   48 1
  15    6   69 1
  16    7    8 am
  17    7   31 2
  18    8    9 1
  19    8   70 1
  20    9   10 1
  21    9   44 1
  22    9   71 1
  23   10   11 am
  24   10   30 2
  25   11   12 1
  26   11   72 1
  27   12   13 1
  28   12   58 1
  29   12   73 1
  30   13   14 am
  31   13   29 2
  32   14   15 1
  33   14   74 1
  34   15   16 1
  35   15   53 1
  36   15   75 1
  37   16   17 am
  38   16   28 2
  39   17   18 1
  40   17   76 1
  41   18   19 1
  42   18   39 1
  43   18   77 1
  44   19   20 1
  45   19   27 2
  46   20   21 1
  47   20   26 2
  48   21   22 1
  49   21   62 1
  50   21   78 1
  51   22   23 am
  52   22   79 1
  53   23   24 1
  54   23   25 2
  55   24   37 1
  56   24   80 1
  57   33   34 1
  58   33   81 1
  59   33   82 1
  60   34   35 1
  61   34   36 1
  62   34   83 1
  63   35   84 1
  64   35   85 1
  65   35   86 1
  66   36   87 1
  67   36   88 1
  68   36   89 1
  69   37   38 1
  70   37   90 1
  71   37   91 1
  72   38   92 1
  73   39   40 1
  74   39   93 1
  75   39   94 1
  76   40   41 1
  77   40   95 1
  78   40   96 1
  79   41   42 2
  80   41   43 1
  81   43   97 1
  82   44   45 1
  83   44   47 1
  84   44   98 1
  85   45   46 1
  86   45   99 1
  87   45  100 1
  88   46  101 1
  89   46  102 1
  90   46  103 1
  91   47  104 1
  92   47  105 1
  93   47  106 1
  94   48   49 1
  95   48  107 1
  96   48  108 1
  97   49   50 1
  98   49  109 1
  99   49  110 1
 100   50   51 1
 101   50  111 1
 102   50  112 1
 103   51   52 1
 104   51  113 1
 105   51  114 1
 106   52  115 1
 107   52  116 1
 108   53   54 1
 109   53  117 1
 110   53  118 1
 111   54   55 2
 112   54   56 am
 113   56  119 1
 114   56  120 1
 115   57   58 1
 116   57   59 2
 117   57   60 1
 118   58  121 1
 119   58  122 1
 120   60  123 1
 121   61   62 1
 122   61   63 2
 123   61   64 1
 124   62  124 1
 125   62  125 1
 126   64  126 1

#	End of record

