#	Name: ASD01814327
#	Creating user name:	WinNT
#	Creation time:	15. 06. 2019 19:32

#	Modifying user name:	WinNT
#	Modification time:	15. 06. 2019 19:32

#	Program:	/corina/corina34_cracker 3.40 0067  02.08.2006

@<TRIPOS>MOLECULE
ASD01814327
  54   58    0    0    0
SMALL
NO_CHARGES


@<TRIPOS>ATOM
   1 N1            -0.1174     2.3552    -3.6659 N.2     
   2 C2            -0.1595     1.3454    -4.5028 C.2     
   3 C3             0.9681     1.0150    -5.2700 C.2     
   4 C4             2.1014     1.7483    -5.1390 C.2     
   5 N5             2.1180     2.7941    -4.2606 N.pl3   
   6 C6             0.9965     3.0864    -3.5282 C.2     
   7 N7             3.1079     3.7166    -3.9063 N.2     
   8 C8             2.6201     4.5383    -2.9990 C.2     
   9 C9             1.3081     4.1835    -2.7339 C.2     
  10 C10            2.9809     5.7295    -2.1458 C.3     
  11 N11            1.8040     6.0768    -1.3433 N.am    
  12 C12            0.7482     5.1223    -1.6963 C.3     
  13 C13            1.7103     7.0823    -0.4508 C.2     
  14 O14            0.6441     7.3259     0.0809 O.2     
  15 C15            2.9003     7.8867    -0.1190 C.ar    
  16 C16            2.7987     9.2807    -0.0031 C.ar    
  17 C17            4.1339     7.2635     0.0873 C.ar    
  18 C18            5.2424     8.0196     0.3974 C.ar    
  19 C19            5.1400     9.3995     0.5063 C.ar    
  20 C20            3.9227    10.0278     0.3095 C.ar    
  21 O21            1.6048     9.8950    -0.1968 O.3     
  22 C22            1.6030    11.3240    -0.1967 C.3     
  23 C23            0.4144    11.9421    -0.9550 C.3     
  24 C24            3.3259     1.4135    -5.9512 C.3     
  25 Cl25           0.9131    -0.3212    -6.3769 Cl      
  26 C26           -1.4238     0.5368    -4.6402 C.3     
  27 F27            6.2331    10.1326     0.8114 F       
  28 C28            0.9882    11.9427     1.0717 C.3     
  29 N29            0.3311    12.9078     0.1629 N.3     
  30 C30           -1.0652    13.1364     0.5581 C.3     
  31 C31           -1.7801    13.9348    -0.5338 C.3     
  32 F32           -3.1098    14.1525    -0.1574 F       
  33 H33            3.8134     5.4754    -1.4897 H       
  34 H34            3.2549     6.5706    -2.7827 H       
  35 H35           -0.1105     5.6550    -2.1050 H       
  36 H36            0.4486     4.5596    -0.8122 H       
  37 H37            4.2179     6.1900     0.0039 H       
  38 H38            6.1952     7.5367     0.5569 H       
  39 H39            3.8490    11.1015     0.3993 H       
  40 H40            2.5679    11.7501    -0.4713 H       
  41 H41            0.6890    12.3954    -1.9074 H       
  42 H42           -0.4496    11.2819    -1.0303 H       
  43 H43            3.1158     0.5540    -6.5877 H       
  44 H44            3.5950     2.2682    -6.5718 H       
  45 H45            4.1524     1.1762    -5.2814 H       
  46 H46           -2.1856     0.9372    -3.9714 H       
  47 H47           -1.7792     0.5903    -5.6693 H       
  48 H48           -1.2209    -0.5019    -4.3795 H       
  49 H49            0.2920    11.2827     1.5892 H       
  50 H50            1.7213    12.3966     1.7386 H       
  51 H51           -1.5658    12.1778     0.6942 H       
  52 H52           -1.0911    13.6959     1.4933 H       
  53 H53           -1.2794    14.8933    -0.6699 H       
  54 H54           -1.7542    13.3753    -1.4689 H       
@<TRIPOS>BOND
   1    1    2 2
   2    1    6 1
   3    2    3 1
   4    2   26 1
   5    3    4 2
   6    3   25 1
   7    4    5 1
   8    4   24 1
   9    5    7 1
  10    5    6 1
  11    6    9 2
  12    7    8 2
  13    8   10 1
  14    8    9 1
  15    9   12 1
  16   10   11 1
  17   10   33 1
  18   10   34 1
  19   11   12 1
  20   11   13 am
  21   12   35 1
  22   12   36 1
  23   13   14 2
  24   13   15 1
  25   15   17 ar
  26   15   16 ar
  27   16   20 ar
  28   16   21 1
  29   17   18 ar
  30   17   37 1
  31   18   19 ar
  32   18   38 1
  33   19   20 ar
  34   19   27 1
  35   20   39 1
  36   21   22 1
  37   22   23 1
  38   22   28 1
  39   22   40 1
  40   23   29 1
  41   23   41 1
  42   23   42 1
  43   24   43 1
  44   24   44 1
  45   24   45 1
  46   26   46 1
  47   26   47 1
  48   26   48 1
  49   28   29 1
  50   28   49 1
  51   28   50 1
  52   29   30 1
  53   30   31 1
  54   30   51 1
  55   30   52 1
  56   31   32 1
  57   31   53 1
  58   31   54 1

#	End of record

