#	Name: ASD01911216
#	Creating user name:	WinNT
#	Creation time:	15. 06. 2019 19:57

#	Modifying user name:	WinNT
#	Modification time:	15. 06. 2019 19:57

#	Program:	/corina/corina34_cracker 3.40 0067  02.08.2006

@<TRIPOS>MOLECULE
ASD01911216
  28   29    0    0    0
SMALL
NO_CHARGES


@<TRIPOS>ATOM
   1 C1            -0.0167     1.3787     0.0096 C.ar    
   2 C2             0.0021    -0.0041     0.0020 C.ar    
   3 N3             1.1409    -0.6657    -0.0124 N.ar    
   4 C4             2.3118    -0.0360    -0.0202 C.ar    
   5 C5             2.3655     1.3604    -0.0128 C.ar    
   6 C6             1.1832     2.0775     0.0019 C.ar    
   7 C7             3.5615    -0.8159    -0.0363 C.2     
   8 C8             3.5154    -2.1579    -0.0431 C.2     
   9 C9             4.7657    -2.9381    -0.0592 C.ar    
  10 C10            4.7216    -4.3348    -0.0663 C.ar    
  11 C11            5.8957    -5.0583    -0.0819 C.ar    
  12 C12            7.1153    -4.4044    -0.0900 C.ar    
  13 C13            7.1667    -3.0215    -0.0826 C.ar    
  14 C14            6.0009    -2.2847    -0.0734 C.ar    
  15 C15           -1.2989    -0.7647     0.0109 C.3     
  16 H16           -0.9566     1.9105     0.0170 H       
  17 H17            3.3166     1.8721    -0.0184 H       
  18 H18            1.1929     3.1575     0.0076 H       
  19 H19            4.5148    -0.3082    -0.0427 H       
  20 H20            2.5622    -2.6655    -0.0367 H       
  21 H21            3.7705    -4.8465    -0.0592 H       
  22 H22            5.8633    -6.1378    -0.0874 H       
  23 H23            8.0314    -4.9761    -0.1019 H       
  24 H24            8.1221    -2.5180    -0.0884 H       
  25 H25            6.0425    -1.2056    -0.0676 H       
  26 H26           -1.6227    -0.9425    -1.0146 H       
  27 H27           -1.1583    -1.7191     0.5182 H       
  28 H28           -2.0565    -0.1825     0.5354 H       
@<TRIPOS>BOND
   1    1    2 ar
   2    1    6 ar
   3    1   16 1
   4    2    3 ar
   5    2   15 1
   6    3    4 ar
   7    4    5 ar
   8    4    7 1
   9    5    6 ar
  10    5   17 1
  11    6   18 1
  12    7    8 2
  13    7   19 1
  14    8    9 1
  15    8   20 1
  16    9   10 ar
  17    9   14 ar
  18   10   11 ar
  19   10   21 1
  20   11   12 ar
  21   11   22 1
  22   12   13 ar
  23   12   23 1
  24   13   14 ar
  25   13   24 1
  26   14   25 1
  27   15   26 1
  28   15   27 1
  29   15   28 1

#	End of record

