#	Name: ASD05430292
#	Creating user name:	WinNT
#	Creation time:	15. 06. 2019 21:00

#	Modifying user name:	WinNT
#	Modification time:	15. 06. 2019 21:00

#	Program:	/corina/corina34_cracker 3.40 0067  02.08.2006

@<TRIPOS>MOLECULE
ASD05430292
  74   79    0    0    0
SMALL
NO_CHARGES


@<TRIPOS>ATOM
   1 C1            -0.1772     0.9896     0.1287 C.ar    
   2 C2            -0.1837    -0.1685     0.9055 C.ar    
   3 C3            -1.3654    -0.6143     1.4836 C.ar    
   4 C4            -2.5369     0.0853     1.2918 C.ar    
   5 C5            -2.5379     1.2476     0.5139 C.ar    
   6 C6            -1.3473     1.6995    -0.0632 C.ar    
   7 C7            -4.9945    -0.1722     0.1256 C.3     
   8 C8            -4.9567     1.3376     0.1968 C.2     
   9 C9            -3.7885     1.9964     0.3079 C.2     
  10 C10           -6.3052    -0.6366    -0.5006 C.3     
  11 C11           -6.9261     0.3564    -1.4808 C.3     
  12 N12           -7.1758     1.6190    -0.7854 N.pl3   
  13 C13           -6.2359     2.0670     0.1406 C.2     
  14 N14           -6.4953     3.0660     0.9190 N.2     
  15 C15           -9.4635     1.5582    -1.5957 C.ar    
  16 C16           -9.6457     1.4617    -2.9628 C.ar    
  17 C17          -10.2846     0.8514    -0.7374 C.ar    
  18 C18          -11.2881     0.0478    -1.2461 C.ar    
  19 C19          -11.4705    -0.0484    -2.6127 C.ar    
  20 C20          -10.6489     0.6583    -3.4712 C.ar    
  21 N21            1.0047    -0.8844     1.1031 N.pl3   
  22 C22            1.8744    -1.2869     0.1404 C.2     
  23 C23            1.5121    -1.3057     2.3049 C.2     
  24 C24            2.6635    -1.9510     2.0376 C.2     
  25 N25            2.8602    -1.9245     0.7111 N.2     
  26 C26            3.5755    -2.5889     3.0536 C.3     
  27 C27           -8.3657     2.4293    -1.0415 C.3     
  28 C28           -8.8196     3.0518     0.2834 C.3     
  29 O29           -7.7338     3.7375     0.8984 O.3     
  30 O30            0.9814     1.4233    -0.4352 O.3     
  31 C31            0.9147     2.6168    -1.2184 C.3     
  32 C32           -8.0299     3.5362    -2.0429 C.3     
  33 O33           -9.1956     4.3250    -2.2897 O.3     
  34 C34           -6.2419    -2.0713    -1.0504 C.3     
  35 O35           -7.5338    -2.2420    -0.4322 O.3     
  36 C36           -7.3103    -1.1861     0.5247 C.3     
  37 C37            2.3048     2.9454    -1.7665 C.3     
  38 S38          -10.8881     0.5328    -5.2609 Du      
  39 F39          -11.0352    -1.0650    -5.1292 F       
  40 F40          -10.7411     2.1307    -5.3926 F       
  41 F41          -11.1009     0.4212    -6.8529 F       
  42 F42          -12.4772     0.6957    -5.0599 F       
  43 F43           -9.2991     0.3700    -5.4620 F       
  44 H44           -1.3661    -1.5117     2.0845 H       
  45 H45           -3.4543    -0.2641     1.7419 H       
  46 H46           -1.3437     2.5966    -0.6646 H       
  47 H47           -4.1598    -0.5263    -0.4792 H       
  48 H48           -4.9091    -0.5835     1.1314 H       
  49 H49           -3.7684     3.0745     0.2459 H       
  50 H50           -6.2406     0.5266    -2.3110 H       
  51 H51           -7.8668    -0.0440    -1.8589 H       
  52 H52           -9.0043     2.0143    -3.6334 H       
  53 H53          -10.1420     0.9266     0.3305 H       
  54 H54          -11.9292    -0.5050    -0.5755 H       
  55 H55          -12.2539    -0.6767    -3.0101 H       
  56 H56            1.7678    -1.1097    -0.9196 H       
  57 H57            1.0731    -1.1495     3.2792 H       
  58 H58            3.2790    -3.6265     3.2072 H       
  59 H59            4.6031    -2.5545     2.6917 H       
  60 H60            3.5042    -2.0472     3.9967 H       
  61 H61           -9.6303     3.7553     0.0933 H       
  62 H62           -9.1745     2.2655     0.9496 H       
  63 H63            0.2227     2.4690    -2.0475 H       
  64 H64            0.5654     3.4407    -0.5961 H       
  65 H65           -7.2426     4.1695    -1.6339 H       
  66 H66           -7.6887     3.0899    -2.9770 H       
  67 H67           -9.0560     5.0476    -2.9169 H       
  68 H68           -6.2625    -2.1280    -2.1387 H       
  69 H69           -5.4555    -2.6803    -0.6047 H       
  70 H70           -6.8523    -1.5231     1.4546 H       
  71 H71           -8.1761    -0.5429     0.6822 H       
  72 H72            2.2539     3.8557    -2.3639 H       
  73 H73            2.9967     3.0931    -0.9374 H       
  74 H74            2.6540     2.1214    -2.3888 H       
@<TRIPOS>BOND
   1    1    2 ar
   2    1   30 1
   3    1    6 ar
   4    2    3 ar
   5    2   21 1
   6    3    4 ar
   7    3   44 1
   8    4    5 ar
   9    4   45 1
  10    5    6 ar
  11    5    9 1
  12    6   46 1
  13    7    8 1
  14    7   10 1
  15    7   47 1
  16    7   48 1
  17    8    9 2
  18    8   13 1
  19    9   49 1
  20   10   11 1
  21   10   34 1
  22   10   36 1
  23   11   12 1
  24   11   50 1
  25   11   51 1
  26   12   13 1
  27   12   27 1
  28   13   14 2
  29   14   29 1
  30   15   16 ar
  31   15   17 ar
  32   15   27 1
  33   16   20 ar
  34   16   52 1
  35   17   18 ar
  36   17   53 1
  37   18   19 ar
  38   18   54 1
  39   19   20 ar
  40   19   55 1
  41   20   38 1
  42   21   22 1
  43   21   23 1
  44   22   25 2
  45   22   56 1
  46   23   24 2
  47   23   57 1
  48   24   25 1
  49   24   26 1
  50   26   58 1
  51   26   59 1
  52   26   60 1
  53   27   28 1
  54   27   32 1
  55   28   29 1
  56   28   61 1
  57   28   62 1
  58   30   31 1
  59   31   37 1
  60   31   63 1
  61   31   64 1
  62   32   33 1
  63   32   65 1
  64   32   66 1
  65   33   67 1
  66   34   35 1
  67   34   68 1
  68   34   69 1
  69   35   36 1
  70   36   70 1
  71   36   71 1
  72   37   72 1
  73   37   73 1
  74   37   74 1
  75   38   39 1
  76   38   40 1
  77   38   41 1
  78   38   42 1
  79   38   43 1

#	End of record

