#	Name: ASD02198675
#	Creating user name:	WinNT
#	Creation time:	15. 06. 2019 20:19

#	Modifying user name:	WinNT
#	Modification time:	15. 06. 2019 20:19

#	Program:	/corina/corina34_cracker 3.40 0067  02.08.2006

@<TRIPOS>MOLECULE
ASD02198675
  53   57    0    0    0
SMALL
NO_CHARGES


@<TRIPOS>ATOM
   1 F1             2.2519    -1.7072     2.4724 F       
   2 C2            -0.0435     1.5030    -0.1145 C.2     
   3 C3            -0.0736     0.1634     0.0981 C.2     
   4 N4             1.0708    -0.5386     0.2609 N.pl3   
   5 N5             2.2354    -0.0042     0.2271 N.2     
   6 C6             2.4074     1.2849     0.0284 C.2     
   7 C7             1.2217     2.1366    -0.1602 C.2     
   8 C8             0.9789    -1.9164     0.4773 C.ar    
   9 C9             1.5800    -2.4861     1.5965 C.ar    
  10 C10            1.4897    -3.8469     1.8111 C.ar    
  11 C11            0.7964    -4.6492     0.9060 C.ar    
  12 C12            0.1955    -4.0753    -0.2140 C.ar    
  13 C13            0.2827    -2.7156    -0.4222 C.ar    
  14 C14            3.7646     1.8667    -0.0039 C.2     
  15 N15            4.3072     2.6061    -1.0171 N.pl3   
  16 N16            5.6092     2.9570    -0.6391 N.2     
  17 C17            5.8525     2.4577     0.5464 C.2     
  18 C18            4.7199     1.7712     0.9842 C.2     
  19 C19            3.6747     2.9505    -2.2185 C.ar    
  20 C20            2.9124     2.0098    -2.8979 C.ar    
  21 C21            2.2895     2.3527    -4.0822 C.ar    
  22 C22            2.4250     3.6310    -4.5914 C.ar    
  23 C23            3.1841     4.5702    -3.9171 C.ar    
  24 C24            3.8042     4.2354    -2.7296 C.ar    
  25 O25            1.3252     3.3395    -0.3485 O.2     
  26 C26            0.6983    -6.1111     1.1337 C.ar    
  27 N27            1.2728    -6.6509     2.2014 N.ar    
  28 C28           -0.0011    -6.9061     0.2281 C.ar    
  29 C29           -0.0844    -8.2692     0.4543 C.ar    
  30 C30            0.5352    -8.7929     1.5799 C.ar    
  31 C31            1.2085    -7.9448     2.4400 C.ar    
  32 C32            3.3299     5.9621    -4.4762 C.3     
  33 F33            2.6130     6.0612    -5.6734 F       
  34 F34            2.8303     6.8892    -3.5553 F       
  35 F35            4.6818     6.2279    -4.7188 F       
  36 C36            7.1412     2.6049     1.3136 C.3     
  37 H37           -0.9547     2.0669    -0.2490 H       
  38 H38           -1.0236    -0.3488     0.1382 H       
  39 H39            1.9560    -4.2895     2.6789 H       
  40 H40           -0.3419    -4.6956    -0.9160 H       
  41 H41           -0.1828    -2.2718    -1.2898 H       
  42 H42            4.6135     1.2521     1.9253 H       
  43 H43            2.8068     1.0109    -2.5011 H       
  44 H44            1.6964     1.6214    -4.6112 H       
  45 H45            1.9373     3.8966    -5.5177 H       
  46 H46            4.3965     4.9693    -2.2034 H       
  47 H47           -0.4719    -6.4650    -0.6380 H       
  48 H48           -0.6200    -8.9106    -0.2299 H       
  49 H49            0.4882    -9.8523     1.7848 H       
  50 H50            1.6921    -8.3494     3.3169 H       
  51 H51            7.0944     3.4997     1.9343 H       
  52 H52            7.2887     1.7304     1.9474 H       
  53 H53            7.9727     2.6910     0.6141 H       
@<TRIPOS>BOND
   1    1    9 1
   2    2    3 2
   3    2    7 1
   4    2   37 1
   5    3    4 1
   6    3   38 1
   7    4    5 1
   8    4    8 1
   9    5    6 2
  10    6    7 1
  11    6   14 1
  12    7   25 2
  13    8    9 ar
  14    8   13 ar
  15    9   10 ar
  16   10   11 ar
  17   10   39 1
  18   11   12 ar
  19   11   26 1
  20   12   13 ar
  21   12   40 1
  22   13   41 1
  23   14   15 1
  24   14   18 2
  25   15   16 1
  26   15   19 1
  27   16   17 2
  28   17   18 1
  29   17   36 1
  30   18   42 1
  31   19   20 ar
  32   19   24 ar
  33   20   21 ar
  34   20   43 1
  35   21   22 ar
  36   21   44 1
  37   22   23 ar
  38   22   45 1
  39   23   24 ar
  40   23   32 1
  41   24   46 1
  42   26   27 ar
  43   26   28 ar
  44   27   31 ar
  45   28   29 ar
  46   28   47 1
  47   29   30 ar
  48   29   48 1
  49   30   31 ar
  50   30   49 1
  51   31   50 1
  52   32   33 1
  53   32   34 1
  54   32   35 1
  55   36   51 1
  56   36   52 1
  57   36   53 1

#	End of record

