#	Name: ASD03092267
#	Creating user name:	WinNT
#	Creation time:	15. 06. 2019 20:32

#	Modifying user name:	WinNT
#	Modification time:	15. 06. 2019 20:32

#	Program:	/corina/corina34_cracker 3.40 0067  02.08.2006

@<TRIPOS>MOLECULE
ASD03092267
  44   47    0    0    0
SMALL
NO_CHARGES


@<TRIPOS>ATOM
   1 F1             0.0021    -0.0041     0.0020 F       
   2 C2            -0.0169     1.3948     0.0097 C.3     
   3 F3             1.2956     1.8790    -0.0002 F       
   4 F4            -0.6935     1.8582    -1.1237 F       
   5 C5            -0.7223     1.8808     1.2496 C.2     
   6 C6            -0.9215     3.1696     1.5676 C.2     
   7 C7            -1.6406     3.1897     2.8437 C.ar    
   8 C8            -2.1216     4.2063     3.6704 C.ar    
   9 C9            -2.7697     3.8877     4.8307 C.ar    
  10 C10           -3.2888     4.9858     5.7228 C.3     
  11 N11           -4.6605     5.3229     5.3345 N.am    
  12 C12           -5.3316     6.2851     5.9981 C.2     
  13 O13           -4.7985     6.8732     6.9189 O.2     
  14 C14           -6.7147     6.6250     5.6066 C.ar    
  15 C15           -7.4193     7.6279     6.2863 C.ar    
  16 C16           -8.7097     7.9110     5.8843 C.ar    
  17 C17           -9.2648     7.1954     4.8237 C.ar    
  18 N18           -8.5692     6.2510     4.2011 N.ar    
  19 C19           -7.3364     5.9554     4.5502 C.ar    
  20 C20          -10.6495     7.4926     4.3860 C.ar    
  21 C21          -11.2652     6.7157     3.3999 C.ar    
  22 C22          -12.5597     7.0341     3.0267 C.ar    
  23 C23          -13.1965     8.1001     3.6353 C.ar    
  24 N24          -12.5898     8.8157     4.5629 N.ar    
  25 C25          -11.3614     8.5477     4.9550 C.ar    
  26 C26           -2.9539     2.5609     5.1937 C.ar    
  27 C27           -2.4872     1.5417     4.3925 C.ar    
  28 C28           -1.8244     1.8429     3.2075 C.ar    
  29 N29           -1.2596     1.0735     2.2150 N.pl3   
  30 H30           -1.2432     0.1038     2.2030 H       
  31 H31           -0.6104     4.0288     0.9920 H       
  32 H32           -1.9819     5.2411     3.3943 H       
  33 H33           -3.2771     4.6481     6.7591 H       
  34 H34           -2.6553     5.8669     5.6206 H       
  35 H35           -5.0859     4.8536     4.5998 H       
  36 H36           -6.9643     8.1659     7.1047 H       
  37 H37           -9.2824     8.6773     6.3855 H       
  38 H38           -6.8004     5.1841     4.0172 H       
  39 H39          -10.7440     5.8887     2.9408 H       
  40 H40          -13.0667     6.4563     2.2681 H       
  41 H41          -14.2064     8.3511     3.3465 H       
  42 H42          -10.8998     9.1536     5.7207 H       
  43 H43           -3.4680     2.3249     6.1138 H       
  44 H44           -2.6352     0.5123     4.6839 H       
@<TRIPOS>BOND
   1    1    2 1
   2    2    3 1
   3    2    4 1
   4    2    5 1
   5    5   29 1
   6    5    6 2
   7    6    7 1
   8    6   31 1
   9    7   28 ar
  10    7    8 ar
  11    8    9 ar
  12    8   32 1
  13    9   10 1
  14    9   26 ar
  15   10   11 1
  16   10   33 1
  17   10   34 1
  18   11   12 am
  19   11   35 1
  20   12   13 2
  21   12   14 1
  22   14   19 ar
  23   14   15 ar
  24   15   16 ar
  25   15   36 1
  26   16   17 ar
  27   16   37 1
  28   17   18 ar
  29   17   20 1
  30   18   19 ar
  31   19   38 1
  32   20   25 ar
  33   20   21 ar
  34   21   22 ar
  35   21   39 1
  36   22   23 ar
  37   22   40 1
  38   23   24 ar
  39   23   41 1
  40   24   25 ar
  41   25   42 1
  42   26   27 ar
  43   26   43 1
  44   27   28 ar
  45   27   44 1
  46   28   29 1
  47   29   30 1

#	End of record

