#	Name: ASD01148689
#	Creating user name:	WinNT
#	Creation time:	15. 06. 2019 19:03

#	Modifying user name:	WinNT
#	Modification time:	15. 06. 2019 19:03

#	Program:	/corina/corina34_cracker 3.40 0067  02.08.2006

@<TRIPOS>MOLECULE
ASD01148689
  39   41    0    0    0
SMALL
NO_CHARGES


@<TRIPOS>ATOM
   1 C1            -0.0166     1.3763     0.0096 C.ar    
   2 C2             0.0021    -0.0041     0.0020 C.ar    
   3 C3             1.1764     2.0945     0.0021 C.ar    
   4 C4             2.3884     1.4409    -0.0135 C.ar    
   5 C5             2.4287     0.0508    -0.0214 C.ar    
   6 C6             1.2257    -0.6775    -0.0133 C.ar    
   7 N7             3.4591    -0.8666    -0.0366 N.pl3   
   8 C8             2.9503    -2.1366    -0.0384 C.2     
   9 C9             1.6073    -2.0917    -0.0248 C.2     
  10 C10            0.6712    -3.2726    -0.0214 C.3     
  11 C11            0.3692    -3.6799     1.4222 C.3     
  12 N12           -0.5409    -4.8279     1.4255 N.am    
  13 C13           -0.9475    -5.3622     2.5941 C.2     
  14 O14           -0.5589    -4.8913     3.6457 O.2     
  15 C15           -1.8639    -6.5182     2.5974 C.2     
  16 O16           -1.2050     2.0374     0.0188 O.3     
  17 C17           -1.1529     3.4654     0.0263 C.3     
  18 C18           -2.2824    -7.0678     3.7874 C.2     
  19 O19           -3.1130    -8.1157     3.7988 O.3     
  20 C20           -3.5618    -8.6610     2.6556 C.2     
  21 C21           -3.1646    -8.1371     1.4099 C.2     
  22 C22           -2.3252    -7.0682     1.3739 C.2     
  23 O23           -4.3177    -9.6158     2.6968 O.2     
  24 Br24           3.9835    -3.7202    -0.0572 Br      
  25 H25           -0.9239    -0.5600     0.0083 H       
  26 H26            1.1509     3.1741     0.0082 H       
  27 H27            3.3076     2.0078    -0.0200 H       
  28 H28            4.4032    -0.6443    -0.0448 H       
  29 H29           -0.2572    -3.0017    -0.5242 H       
  30 H30            1.1375    -4.1074    -0.5445 H       
  31 H31            1.2976    -3.9508     1.9250 H       
  32 H32           -0.0971    -2.8450     1.9453 H       
  33 H33           -0.8509    -5.2035     0.5866 H       
  34 H34           -0.6304     3.8146    -0.8642 H       
  35 H35           -2.1666     3.8659     0.0333 H       
  36 H36           -0.6219     3.8049     0.9157 H       
  37 H37           -1.9365    -6.6491     4.7209 H       
  38 H38           -3.5266    -8.5776     0.4926 H       
  39 H39           -2.0080    -6.6505     0.4298 H       
@<TRIPOS>BOND
   1    1    2 ar
   2    1    3 ar
   3    1   16 1
   4    2    6 ar
   5    2   25 1
   6    3    4 ar
   7    3   26 1
   8    4    5 ar
   9    4   27 1
  10    5    6 ar
  11    5    7 1
  12    6    9 1
  13    7    8 1
  14    7   28 1
  15    8    9 2
  16    8   24 1
  17    9   10 1
  18   10   11 1
  19   10   29 1
  20   10   30 1
  21   11   12 1
  22   11   31 1
  23   11   32 1
  24   12   13 am
  25   12   33 1
  26   13   14 2
  27   13   15 1
  28   15   18 2
  29   15   22 1
  30   16   17 1
  31   17   34 1
  32   17   35 1
  33   17   36 1
  34   18   19 1
  35   18   37 1
  36   19   20 1
  37   20   21 1
  38   20   23 2
  39   21   22 2
  40   21   38 1
  41   22   39 1

#	End of record

