#	Name: ASD02198601
#	Creating user name:	WinNT
#	Creation time:	15. 06. 2019 20:19

#	Modifying user name:	WinNT
#	Modification time:	15. 06. 2019 20:19

#	Program:	/corina/corina34_cracker 3.40 0067  02.08.2006

@<TRIPOS>MOLECULE
ASD02198601
  44   48    0    0    0
SMALL
NO_CHARGES


@<TRIPOS>ATOM
   1 C1             0.0844     0.9992    -0.1381 C.2     
   2 C2             0.3535    -0.3279    -0.2228 C.2     
   3 N3             1.6286    -0.7781    -0.2223 N.pl3   
   4 N4             2.6481    -0.0051    -0.1435 N.2     
   5 C5             2.5289     1.3023    -0.0564 C.2     
   6 C6             1.1800     1.8913    -0.0496 C.2     
   7 C7             1.8460    -2.1568    -0.3119 C.ar    
   8 C8             0.7721    -3.0359    -0.2400 C.ar    
   9 C9             0.9870    -4.3959    -0.3289 C.ar    
  10 C10            2.2764    -4.8864    -0.4897 C.ar    
  11 C11            3.3500    -4.0081    -0.5616 C.ar    
  12 C12            3.1354    -2.6477    -0.4785 C.ar    
  13 C13            3.7261     2.1626     0.0334 C.2     
  14 N14            4.8629     1.9004     0.7451 N.pl3   
  15 N15            5.7426     2.9733     0.5546 N.2     
  16 C16            5.1733     3.8494    -0.2345 C.2     
  17 C17            3.9095     3.3777    -0.5893 C.2     
  18 C18            5.1048     0.7627     1.5256 C.ar    
  19 C19            4.1067     0.2591     2.3494 C.ar    
  20 O20            1.0130     3.0992     0.0295 O.2     
  21 C21            6.3412     0.1327     1.4729 C.ar    
  22 C22            6.5764    -0.9891     2.2433 C.ar    
  23 C23            5.5822    -1.4852     3.0666 C.ar    
  24 C24            4.3482    -0.8632     3.1174 C.ar    
  25 N25            2.4944    -6.2683    -0.5791 N.pl3   
  26 N26            1.5213    -7.2796    -0.5243 N.2     
  27 C27            2.1523    -8.4184    -0.6458 C.2     
  28 N28            3.4572    -8.1800    -0.7728 N.2     
  29 C29            3.6784    -6.8906    -0.7404 C.2     
  30 H30           -0.9323     1.3634    -0.1425 H       
  31 H31           -0.4611    -1.0337    -0.2912 H       
  32 H32           -0.2305    -2.6545    -0.1143 H       
  33 H33            0.1524    -5.0791    -0.2731 H       
  34 H34            4.3525    -4.3900    -0.6862 H       
  35 H35            3.9702    -1.9648    -0.5347 H       
  36 H36            5.6114     4.7814    -0.5598 H       
  37 H37            3.1997     3.8782    -1.2314 H       
  38 H38            3.1429     0.7446     2.3898 H       
  39 H39            7.1180     0.5194     0.8298 H       
  40 H40            7.5377    -1.4797     2.2025 H       
  41 H41            5.7686    -2.3626     3.6681 H       
  42 H42            3.5738    -1.2529     3.7614 H       
  43 H43            1.6905    -9.3947    -0.6430 H       
  44 H44            4.6420    -6.4098    -0.8216 H       
@<TRIPOS>BOND
   1    1    2 2
   2    1    6 1
   3    1   30 1
   4    2    3 1
   5    2   31 1
   6    3    4 1
   7    3    7 1
   8    4    5 2
   9    5    6 1
  10    5   13 1
  11    6   20 2
  12    7    8 ar
  13    7   12 ar
  14    8    9 ar
  15    8   32 1
  16    9   10 ar
  17    9   33 1
  18   10   11 ar
  19   10   25 1
  20   11   12 ar
  21   11   34 1
  22   12   35 1
  23   13   14 1
  24   13   17 2
  25   14   15 1
  26   14   18 1
  27   15   16 2
  28   16   17 1
  29   16   36 1
  30   17   37 1
  31   18   21 ar
  32   18   19 ar
  33   19   24 ar
  34   19   38 1
  35   21   22 ar
  36   21   39 1
  37   22   23 ar
  38   22   40 1
  39   23   24 ar
  40   23   41 1
  41   24   42 1
  42   25   26 1
  43   25   29 1
  44   26   27 2
  45   27   28 1
  46   27   43 1
  47   28   29 2
  48   29   44 1

#	End of record

