#	Name: ASD01140121
#	Creating user name:	WinNT
#	Creation time:	15. 06. 2019 19:00

#	Modifying user name:	WinNT
#	Modification time:	15. 06. 2019 19:00

#	Program:	/corina/corina34_cracker 3.40 0067  02.08.2006

@<TRIPOS>MOLECULE
ASD01140121
  34   37    0    0    0
SMALL
NO_CHARGES


@<TRIPOS>ATOM
   1 C1            -0.0166     1.3757     0.0096 C.ar    
   2 C2             0.0021    -0.0041     0.0020 C.ar    
   3 C3             1.2357    -0.6658    -0.0133 C.ar    
   4 C4             2.4009     0.1101    -0.0202 C.ar    
   5 C5             2.2887     1.4854    -0.0118 C.ar    
   6 N6             1.1057     2.0686     0.0026 N.ar    
   7 C7             1.3058    -2.1423    -0.0214 C.2     
   8 C8             0.8268    -2.8636    -1.0981 C.2     
   9 C9             0.9093    -4.2563    -1.0716 C.2     
  10 N10            1.4369    -4.8693    -0.0330 N.2     
  11 C11            1.9023    -4.1859     1.0111 C.2     
  12 N12            1.8527    -2.8214     1.0372 N.pl3   
  13 C13            2.5023    -4.5916     2.2226 C.2     
  14 C14            2.7906    -3.4194     2.9480 C.2     
  15 N15            2.4074    -2.3870     2.2455 N.2     
  16 C16            2.7722    -5.9664     2.6442 C.2     
  17 C17            3.4125    -6.2272     3.9548 C.ar    
  18 O18            2.4708    -6.8959     1.9185 O.2     
  19 C19            3.6669    -7.5386     4.3506 C.ar    
  20 C20            4.2663    -7.7666     5.5792 C.ar    
  21 C21            4.5906    -6.6750     6.3696 C.ar    
  22 C22            4.3086    -5.3976     5.9126 C.ar    
  23 N23            3.7439    -5.2091     4.7397 N.ar    
  24 H24           -0.9633     1.8955     0.0169 H       
  25 H25           -0.9209    -0.5649     0.0082 H       
  26 H26            3.3729    -0.3607    -0.0317 H       
  27 H27            3.1818     2.0926    -0.0167 H       
  28 H28            0.3944    -2.3567    -1.9480 H       
  29 H29            0.5387    -4.8333    -1.9059 H       
  30 H30            3.2545    -3.3804     3.9225 H       
  31 H31            3.4004    -8.3657     3.7093 H       
  32 H32            4.4756    -8.7720     5.9134 H       
  33 H33            5.0582    -6.8187     7.3324 H       
  34 H34            4.5599    -4.5449     6.5259 H       
@<TRIPOS>BOND
   1    1    2 ar
   2    1    6 ar
   3    1   24 1
   4    2    3 ar
   5    2   25 1
   6    3    4 ar
   7    3    7 1
   8    4    5 ar
   9    4   26 1
  10    5    6 ar
  11    5   27 1
  12    7    8 2
  13    7   12 1
  14    8    9 1
  15    8   28 1
  16    9   10 2
  17    9   29 1
  18   10   11 1
  19   11   12 1
  20   11   13 2
  21   12   15 1
  22   13   14 1
  23   13   16 1
  24   14   15 2
  25   14   30 1
  26   16   17 1
  27   16   18 2
  28   17   19 ar
  29   17   23 ar
  30   19   20 ar
  31   19   31 1
  32   20   21 ar
  33   20   32 1
  34   21   22 ar
  35   21   33 1
  36   22   23 ar
  37   22   34 1

#	End of record

