#	Name: ASD01882912
#	Creating user name:	WinNT
#	Creation time:	15. 06. 2019 19:45

#	Modifying user name:	WinNT
#	Modification time:	15. 06. 2019 19:45

#	Program:	/corina/corina34_cracker 3.40 0067  02.08.2006

@<TRIPOS>MOLECULE
ASD01882912
  58   62    0    0    0
SMALL
NO_CHARGES


@<TRIPOS>ATOM
   1 C1             0.0991     1.4564    -0.4333 C.2     
   2 C2             0.1089     0.0578    -0.5726 C.2     
   3 C3             1.1667    -0.6630    -0.1451 C.2     
   4 C4             2.2592     1.3197     0.5762 C.2     
   5 C5             1.1626     2.0854     0.1354 C.2     
   6 C6             1.1676     3.5843     0.2915 C.3     
   7 N7             4.0839     0.5501     1.3636 N.2     
   8 N8             3.4102     1.6259     1.1523 N.2     
   9 N9             2.2395    -0.0454     0.4273 N.pl3   
  10 C10            3.4176    -0.4929     0.9405 C.2     
  11 C11            3.8718    -1.9282     1.0088 C.3     
  12 C12            3.4092    -2.5472     2.3293 C.3     
  13 C13            3.6714    -4.0398     2.5400 C.3     
  14 C14            4.4892    -3.0028     3.3126 C.3     
  15 F15            0.3659     3.9424     1.3807 F       
  16 F16            2.4768     4.0260     0.5108 F       
  17 F17            0.6646     4.1760    -0.8722 F       
  18 C18           -1.0825     2.2565    -0.9177 C.3     
  19 N19           -0.9415     2.5157    -2.3568 N.3     
  20 C20           -2.0780     3.2953    -2.8651 C.3     
  21 C21           -1.6502     4.0633    -4.1174 C.3     
  22 C22           -1.1899     3.0741    -5.1900 C.3     
  23 C23           -2.3411     2.1289    -5.5397 C.3     
  24 C24           -2.7689     1.3609    -4.2875 C.3     
  25 C25           -3.2292     2.3501    -3.2149 C.3     
  26 C26           -1.8877     1.1545    -6.5962 C.ar    
  27 C27           -0.8251     0.3077    -6.3444 C.ar    
  28 C28           -0.4081    -0.5865    -7.3125 C.ar    
  29 C29           -1.0552    -0.6351    -8.5355 C.ar    
  30 C30           -2.1202     0.2124    -8.7887 C.ar    
  31 C31           -2.5399     1.1040    -7.8169 C.ar    
  32 F32           -3.5790     1.9317    -8.0626 F       
  33 F33           -0.6472    -1.5089    -9.4817 F       
  34 H34           -0.7350    -0.4428    -1.0239 H       
  35 H35            1.1634    -1.7372    -0.2568 H       
  36 H36            3.4421    -2.4853     0.1762 H       
  37 H37            4.9594    -1.9683     0.9500 H       
  38 H38            2.4907    -2.1339     2.7460 H       
  39 H39            2.9257    -4.6083     3.0957 H       
  40 H40            4.1735    -4.5807     1.7379 H       
  41 H41            5.5293    -2.8615     3.0187 H       
  42 H42            4.2815    -2.8891     4.3765 H       
  43 H43           -1.9995     1.6956    -0.7377 H       
  44 H44           -1.1246     3.2039    -0.3804 H       
  45 H45           -0.0673     2.9781    -2.5570 H       
  46 H46           -2.4059     4.0001    -2.1010 H       
  47 H47           -2.4935     4.6418    -4.4946 H       
  48 H48           -0.8301     4.7367    -3.8682 H       
  49 H49           -0.8852     3.6212    -6.0821 H       
  50 H50           -0.3466     2.4955    -4.8128 H       
  51 H51           -3.1844     2.7074    -5.9169 H       
  52 H52           -3.5890     0.6875    -4.5367 H       
  53 H53           -1.9256     0.7824    -3.9103 H       
  54 H54           -3.5339     1.8030    -2.3228 H       
  55 H55           -4.0724     2.9286    -3.5921 H       
  56 H56           -0.3197     0.3449    -5.3907 H       
  57 H57            0.4229    -1.2473    -7.1149 H       
  58 H58           -2.6256     0.1752    -9.7425 H       
@<TRIPOS>BOND
   1    1    2 1
   2    1    5 2
   3    1   18 1
   4    2    3 2
   5    2   34 1
   6    3    9 1
   7    3   35 1
   8    4    5 1
   9    4    9 1
  10    4    8 2
  11    5    6 1
  12    6   15 1
  13    6   16 1
  14    6   17 1
  15    7    8 1
  16    7   10 2
  17    9   10 1
  18   10   11 1
  19   11   12 1
  20   11   36 1
  21   11   37 1
  22   12   13 1
  23   12   14 1
  24   12   38 1
  25   13   14 1
  26   13   39 1
  27   13   40 1
  28   14   41 1
  29   14   42 1
  30   18   19 1
  31   18   43 1
  32   18   44 1
  33   19   20 1
  34   19   45 1
  35   20   21 1
  36   20   25 1
  37   20   46 1
  38   21   22 1
  39   21   47 1
  40   21   48 1
  41   22   23 1
  42   22   49 1
  43   22   50 1
  44   23   24 1
  45   23   26 1
  46   23   51 1
  47   24   25 1
  48   24   52 1
  49   24   53 1
  50   25   54 1
  51   25   55 1
  52   26   27 ar
  53   26   31 ar
  54   27   28 ar
  55   27   56 1
  56   28   29 ar
  57   28   57 1
  58   29   30 ar
  59   29   33 1
  60   30   31 ar
  61   30   58 1
  62   31   32 1

#	End of record

