#	Name: ASD07301358
#	Creating user name:	WinNT
#	Creation time:	15. 06. 2019 21:11

#	Modifying user name:	WinNT
#	Modification time:	15. 06. 2019 21:11

#	Program:	/corina/corina34_cracker 3.40 0067  02.08.2006

@<TRIPOS>MOLECULE
ASD07301358
  42   43    0    0    0
SMALL
NO_CHARGES


@<TRIPOS>ATOM
   1 C1             1.2970     0.3935    -0.6682 C.3     
   2 C2             0.0071    -0.0049     0.0015 C.2     
   3 C3             0.0342    -0.8357     1.2057 C.2     
   4 C4            -0.1095    -2.2877     1.0961 C.2     
   5 C5            -0.0816    -3.1434     2.3362 C.3     
   6 O6            -1.0542     0.3634    -0.4579 O.2     
   7 O7            -0.2513    -2.8030     0.0064 O.2     
   8 N8             0.1889    -0.2735     2.3948 N.2     
   9 N9             0.4116     0.9939     2.4850 N.pl3   
  10 C10            0.6803     1.5682     3.7276 C.ar    
  11 C11            0.9205     2.9344     3.8250 C.ar    
  12 C12            1.1862     3.5020     5.0539 C.ar    
  13 C13            1.2139     2.7085     6.1946 C.ar    
  14 C14            0.9743     1.3429     6.0977 C.ar    
  15 C15            0.7024     0.7756     4.8699 C.ar    
  16 N16            1.4829     3.2836     7.4389 N.3     
  17 C17            1.4634     2.2708     8.5020 C.3     
  18 C18            1.9034     2.9069     9.8225 C.3     
  19 C19            0.9547     4.0573    10.1704 C.3     
  20 C20            0.9569     5.0741     9.0256 C.3     
  21 C21            0.5443     4.3752     7.7282 C.3     
  22 H22            1.6129    -0.3977    -1.3480 H       
  23 H23            1.1453     1.3156    -1.2294 H       
  24 H24            2.0657     0.5510     0.0884 H       
  25 H25            0.0527    -2.5091     3.2124 H       
  26 H26           -1.0216    -3.6884     2.4229 H       
  27 H27            0.7443    -3.8517     2.2704 H       
  28 H28            0.3923     1.5476     1.6888 H       
  29 H29            0.8993     3.5510     2.9386 H       
  30 H30            1.3731     4.5630     5.1296 H       
  31 H31            0.9966     0.7265     6.9842 H       
  32 H32            0.5116    -0.2848     4.7953 H       
  33 H33            0.4533     1.8752     8.6083 H       
  34 H34            2.1454     1.4605     8.2443 H       
  35 H35            1.8738     2.1586    10.6146 H       
  36 H36            2.9187     3.2904     9.7212 H       
  37 H37           -0.0539     3.6682    10.3100 H       
  38 H38            1.2897     4.5410    11.0879 H       
  39 H39            0.2510     5.8743     9.2482 H       
  40 H40            1.9572     5.4918     8.9117 H       
  41 H41            0.5587     5.0933     6.9083 H       
  42 H42           -0.4615     3.9698     7.8380 H       
@<TRIPOS>BOND
   1    1    2 1
   2    1   22 1
   3    1   23 1
   4    1   24 1
   5    2    3 1
   6    2    6 2
   7    3    4 1
   8    3    8 2
   9    4    5 1
  10    4    7 2
  11    5   25 1
  12    5   26 1
  13    5   27 1
  14    8    9 1
  15    9   10 1
  16    9   28 1
  17   10   11 ar
  18   10   15 ar
  19   11   12 ar
  20   11   29 1
  21   12   13 ar
  22   12   30 1
  23   13   14 ar
  24   13   16 1
  25   14   15 ar
  26   14   31 1
  27   15   32 1
  28   16   17 1
  29   16   21 1
  30   17   18 1
  31   17   33 1
  32   17   34 1
  33   18   19 1
  34   18   35 1
  35   18   36 1
  36   19   20 1
  37   19   37 1
  38   19   38 1
  39   20   21 1
  40   20   39 1
  41   20   40 1
  42   21   41 1
  43   21   42 1

#	End of record

