#	Name: ASD03731542
#	Creating user name:	WinNT
#	Creation time:	15. 06. 2019 20:45

#	Modifying user name:	WinNT
#	Modification time:	15. 06. 2019 20:45

#	Program:	/corina/corina34_cracker 3.40 0067  02.08.2006

@<TRIPOS>MOLECULE
ASD03731542
  39   40    0    0    0
SMALL
NO_CHARGES


@<TRIPOS>ATOM
   1 C1            -0.1361     1.4672     0.0333 C.2     
   2 C2            -0.0850    -0.0063     0.0191 C.ar    
   3 C3             1.1402    -0.6648    -0.1384 C.ar    
   4 C4             1.1828    -2.0445    -0.1511 C.ar    
   5 C5             0.0130    -2.7784    -0.0079 C.ar    
   6 C6            -1.2079    -2.1271     0.1491 C.ar    
   7 C7            -1.2594    -0.7502     0.1687 C.ar    
   8 O8             0.8871     2.1123    -0.0920 O.2     
   9 N9            -1.3175     2.0991     0.1795 N.am    
  10 S10           -1.3749     3.7541     0.1954 S.o2    
  11 O11           -2.7501     4.0552     0.3892 O.2     
  12 O12           -0.4000     4.1293     1.1587 O.2     
  13 C13           -0.8451     4.2414    -1.4697 C.3     
  14 F14           -2.3430    -2.8464     0.2875 F       
  15 F15            2.2789     0.0487    -0.2782 F       
  16 O16            0.0593    -4.1350    -0.0213 O.3     
  17 C17           -0.1522    -4.7689    -1.2047 C.ar    
  18 C18           -0.0462    -6.1504    -1.2815 C.ar    
  19 C19           -0.2615    -6.7927    -2.4850 C.ar    
  20 C20           -0.5822    -6.0595    -3.6141 C.ar    
  21 C21           -0.6884    -4.6821    -3.5397 C.ar    
  22 C22           -0.4799    -4.0363    -2.3362 C.ar    
  23 C23            0.3040    -6.9492    -0.0526 C.3     
  24 C24           -0.9678    -7.2382     0.7474 C.3     
  25 Cl25          -0.8512    -6.8691    -5.1260 Cl      
  26 H26            2.1274    -2.5538    -0.2729 H       
  27 H27           -2.2063    -0.2463     0.2953 H       
  28 H28           -2.1342     1.5846     0.2754 H       
  29 H29           -1.5273     3.8176    -2.2066 H       
  30 H30           -0.8531     5.3284    -1.5499 H       
  31 H31            0.1635     3.8709    -1.6530 H       
  32 H32           -0.1791    -7.8679    -2.5452 H       
  33 H33           -0.9388    -4.1116    -4.4219 H       
  34 H34           -0.5676    -2.9614    -2.2775 H       
  35 H35            0.7674    -7.8898    -0.3504 H       
  36 H36            0.9999    -6.3806     0.5643 H       
  37 H37           -1.6637    -7.8069     0.1306 H       
  38 H38           -0.7145    -7.8160     1.6363 H       
  39 H39           -1.4312    -6.2977     1.0453 H       
@<TRIPOS>BOND
   1    1    2 1
   2    1    8 2
   3    1    9 am
   4    2    3 ar
   5    2    7 ar
   6    3    4 ar
   7    3   15 1
   8    4    5 ar
   9    4   26 1
  10    5    6 ar
  11    5   16 1
  12    6    7 ar
  13    6   14 1
  14    7   27 1
  15    9   10 am
  16    9   28 1
  17   10   11 2
  18   10   12 2
  19   10   13 1
  20   13   29 1
  21   13   30 1
  22   13   31 1
  23   16   17 1
  24   17   18 ar
  25   17   22 ar
  26   18   19 ar
  27   18   23 1
  28   19   20 ar
  29   19   32 1
  30   20   21 ar
  31   20   25 1
  32   21   22 ar
  33   21   33 1
  34   22   34 1
  35   23   24 1
  36   23   35 1
  37   23   36 1
  38   24   37 1
  39   24   38 1
  40   24   39 1

#	End of record

