#	Name: ASD01900882
#	Creating user name:	WinNT
#	Creation time:	15. 06. 2019 19:52

#	Modifying user name:	WinNT
#	Modification time:	15. 06. 2019 19:52

#	Program:	/corina/corina34_cracker 3.40 0067  02.08.2006

@<TRIPOS>MOLECULE
ASD01900882
  52   56    0    0    0
SMALL
NO_CHARGES


@<TRIPOS>ATOM
   1 C1             0.0903     1.4921    -1.2701 C.ar    
   2 C2             0.0342     0.1145    -1.2618 C.ar    
   3 C3             1.0241    -0.6262    -0.6352 C.ar    
   4 C4             2.0777     0.0053    -0.0034 C.ar    
   5 C5             2.1468     1.3888     0.0007 C.ar    
   6 C6             1.1522     2.1440    -0.6436 C.ar    
   7 N7             3.1834     2.0598     0.6444 N.pl3   
   8 C8             3.5325     3.4043     0.1801 C.3     
   9 N9             2.3682     4.2100    -0.1804 N.am    
  10 C10            1.2465     3.6145    -0.6396 C.2     
  11 C11            4.5219     4.1306     1.1021 C.3     
  12 C12            2.4152     5.6034    -0.0484 C.ar    
  13 C13            1.9686     6.2059     1.1202 C.ar    
  14 C14            2.0151     7.5799     1.2496 C.ar    
  15 C15            2.5078     8.3583     0.2124 C.ar    
  16 C16            2.9542     7.7571    -0.9554 C.ar    
  17 C17            2.9136     6.3828    -1.0840 C.ar    
  18 O18            0.3199     4.2879    -1.0484 O.2     
  19 O19            2.5529     9.7112     0.3403 O.3     
  20 C20            3.0722    10.4506    -0.7668 C.3     
  21 C21            4.6436     3.4174    -0.8785 C.3     
  22 N22            5.1928     4.5770    -0.1398 N.3     
  23 C23            6.6531     4.4775    -0.0143 C.3     
  24 C24            7.2895     4.7012    -1.3618 C.ar    
  25 C25            7.6421     5.9784    -1.7560 C.ar    
  26 C26            8.2259     6.1842    -2.9918 C.ar    
  27 C27            8.4574     5.1115    -3.8344 C.ar    
  28 C28            8.1043     3.8335    -3.4393 C.ar    
  29 C29            7.5257     3.6283    -2.2010 C.ar    
  30 Cl30           9.1900     5.3692    -5.3870 Cl      
  31 H31           -0.6821     2.0636    -1.7633 H       
  32 H32           -0.7875    -0.3912    -1.7470 H       
  33 H33            0.9710    -1.7049    -0.6406 H       
  34 H34            2.8444    -0.5772     0.4857 H       
  35 H35            3.6614     1.6478     1.3811 H       
  36 H36            4.0737     4.9420     1.6756 H       
  37 H37            5.1273     3.4604     1.7122 H       
  38 H38            1.5846     5.6001     1.9276 H       
  39 H39            1.6675     8.0487     2.1583 H       
  40 H40            3.3377     8.3637    -1.7624 H       
  41 H41            3.2652     5.9146    -1.9914 H       
  42 H42            4.0989    10.1404    -0.9614 H       
  43 H43            2.4617    10.2601    -1.6494 H       
  44 H44            3.0522    11.5153    -0.5341 H       
  45 H45            5.2850     2.5365    -0.8533 H       
  46 H46            4.2925     3.6612    -1.8811 H       
  47 H47            7.0098     5.2329     0.6859 H       
  48 H48            6.9194     3.4866     0.3534 H       
  49 H49            7.4611     6.8157    -1.0983 H       
  50 H50            8.5010     7.1821    -3.2998 H       
  51 H51            8.2847     2.9957    -4.0967 H       
  52 H52            7.2541     2.6301    -1.8907 H       
@<TRIPOS>BOND
   1    1    2 ar
   2    1    6 ar
   3    1   31 1
   4    2    3 ar
   5    2   32 1
   6    3    4 ar
   7    3   33 1
   8    4    5 ar
   9    4   34 1
  10    5    7 1
  11    5    6 ar
  12    6   10 1
  13    7    8 1
  14    7   35 1
  15    8    9 1
  16    8   11 1
  17    8   21 1
  18    9   10 am
  19    9   12 1
  20   10   18 2
  21   11   22 1
  22   11   36 1
  23   11   37 1
  24   12   13 ar
  25   12   17 ar
  26   13   14 ar
  27   13   38 1
  28   14   15 ar
  29   14   39 1
  30   15   16 ar
  31   15   19 1
  32   16   17 ar
  33   16   40 1
  34   17   41 1
  35   19   20 1
  36   20   42 1
  37   20   43 1
  38   20   44 1
  39   21   22 1
  40   21   45 1
  41   21   46 1
  42   22   23 1
  43   23   24 1
  44   23   47 1
  45   23   48 1
  46   24   25 ar
  47   24   29 ar
  48   25   26 ar
  49   25   49 1
  50   26   27 ar
  51   26   50 1
  52   27   28 ar
  53   27   30 1
  54   28   29 ar
  55   28   51 1
  56   29   52 1

#	End of record

