#	Name: ASD03240256
#	Creating user name:	WinNT
#	Creation time:	15. 06. 2019 20:34

#	Modifying user name:	WinNT
#	Modification time:	15. 06. 2019 20:34

#	Program:	/corina/corina34_cracker 3.40 0067  02.08.2006

@<TRIPOS>MOLECULE
ASD03240256
  69   72    0    0    0
SMALL
NO_CHARGES


@<TRIPOS>ATOM
   1 C1             0.6651     2.2945    -0.7287 C.ar    
   2 C2             1.2201     1.0909    -1.1214 C.ar    
   3 C3             2.5641     1.0198    -1.4367 C.ar    
   4 C4             3.3530     2.1524    -1.3598 C.ar    
   5 C5             2.7977     3.3561    -0.9679 C.ar    
   6 C6             1.4540     3.4269    -0.6512 C.ar    
   7 C7             0.8488     4.7391    -0.2235 C.3     
   8 N8             0.9457     4.8701     1.2324 N.am    
   9 C9             0.0105     4.4412     2.0988 C.2     
  10 C10            1.9844     5.4298     1.8785 C.2     
  11 C11            1.7175     5.3763     3.3319 C.ar    
  12 C12            0.4617     4.7473     3.4700 C.ar    
  13 C13           -0.0755     4.5438     4.7330 C.ar    
  14 C14            2.4098     5.7873     4.4560 C.ar    
  15 C15            1.8587     5.5792     5.7204 C.ar    
  16 C16            0.6213     4.9616     5.8524 C.ar    
  17 O17           -1.0324     3.8935     1.8018 O.2     
  18 O18            2.9750     5.8997     1.3561 O.2     
  19 N19            2.5533     5.9920     6.8569 N.am    
  20 C20            1.8789     6.4586     7.9264 C.2     
  21 C21            2.6180     6.7918     9.1967 C.3     
  22 O22            0.6771     6.6104     7.8665 O.2     
  23 C23            1.6411     7.2895    10.2306 C.ar    
  24 C24            0.4544     9.0984    11.2608 C.ar    
  25 C25            1.3501     8.6385    10.3129 C.ar    
  26 C26            1.0328     6.3966    11.0917 C.ar    
  27 C27            0.1336     6.8554    12.0431 C.ar    
  28 C28           -0.1525     8.2105    12.1274 C.ar    
  29 O29           -0.4664     5.9790    12.8910 O.3     
  30 C30           -1.3811     6.5223    13.8451 C.3     
  31 C31           -2.9312     5.9745    15.7264 C.3     
  32 C32           -3.5020     4.8450    16.5863 C.3     
  33 C33           -4.4666     5.4180    17.5924 C.2     
  34 N34           -5.0956     4.6033    18.4626 N.am    
  35 O35           -4.6768     6.6121    17.6191 O.2     
  36 S36           -6.1556     5.2329    19.5682 S.o2    
  37 C37           -7.5126     5.8993    18.5657 C.3     
  38 O38           -6.5938     4.1060    20.3146 O.2     
  39 O39           -5.4305     6.2857    20.1887 O.2     
  40 C40           -1.9519     5.3928    14.7049 C.3     
  41 H41           -0.3860     2.3510    -0.4866 H       
  42 H42            0.6038     0.2061    -1.1815 H       
  43 H43            2.9980     0.0794    -1.7429 H       
  44 H44            4.4032     2.0967    -1.6055 H       
  45 H45            3.4141     4.2409    -0.9075 H       
  46 H46            1.3867     5.5594    -0.6987 H       
  47 H47           -0.1990     4.7704    -0.5222 H       
  48 H48           -1.0354     4.0608     4.8418 H       
  49 H49            3.3724     6.2667     4.3556 H       
  50 H50            0.2028     4.8030     6.8353 H       
  51 H51            3.5218     5.9433     6.8777 H       
  52 H52            3.1190     5.8988     9.5704 H       
  53 H53            3.3583     7.5658     8.9940 H       
  54 H54            0.2290    10.1528    11.3233 H       
  55 H55            1.8233     9.3343     9.6359 H       
  56 H56            1.2568     5.3423    11.0239 H       
  57 H57           -0.8514     8.5703    12.8680 H       
  58 H58           -0.8596     7.2363    14.4826 H       
  59 H59           -2.1935     7.0274    13.3227 H       
  60 H60           -3.7437     6.4796    15.2041 H       
  61 H61           -2.4097     6.6885    16.3639 H       
  62 H62           -4.0234     4.1310    15.9487 H       
  63 H63           -2.6895     4.3399    17.1086 H       
  64 H64           -4.9275     3.6483    18.4412 H       
  65 H65           -7.9624     5.0955    17.9828 H       
  66 H66           -8.2656     6.3389    19.2198 H       
  67 H67           -7.1254     6.6638    17.8922 H       
  68 H68           -2.4733     4.6788    14.0674 H       
  69 H69           -1.1394     4.8877    15.2273 H       
@<TRIPOS>BOND
   1    1    2 ar
   2    1    6 ar
   3    1   41 1
   4    2    3 ar
   5    2   42 1
   6    3    4 ar
   7    3   43 1
   8    4    5 ar
   9    4   44 1
  10    5    6 ar
  11    5   45 1
  12    6    7 1
  13    7    8 1
  14    7   46 1
  15    7   47 1
  16    8   10 am
  17    8    9 am
  18    9   12 1
  19    9   17 2
  20   10   11 1
  21   10   18 2
  22   11   14 ar
  23   11   12 ar
  24   12   13 ar
  25   13   16 ar
  26   13   48 1
  27   14   15 ar
  28   14   49 1
  29   15   16 ar
  30   15   19 1
  31   16   50 1
  32   19   20 am
  33   19   51 1
  34   20   21 1
  35   20   22 2
  36   21   23 1
  37   21   52 1
  38   21   53 1
  39   23   26 ar
  40   23   25 ar
  41   24   25 ar
  42   24   28 ar
  43   24   54 1
  44   25   55 1
  45   26   27 ar
  46   26   56 1
  47   27   28 ar
  48   27   29 1
  49   28   57 1
  50   29   30 1
  51   30   40 1
  52   30   58 1
  53   30   59 1
  54   31   32 1
  55   31   40 1
  56   31   60 1
  57   31   61 1
  58   32   33 1
  59   32   62 1
  60   32   63 1
  61   33   34 am
  62   33   35 2
  63   34   36 am
  64   34   64 1
  65   36   37 1
  66   36   38 2
  67   36   39 2
  68   37   65 1
  69   37   66 1
  70   37   67 1
  71   40   68 1
  72   40   69 1

#	End of record

