#	Name: ASD03092720
#	Creating user name:	WinNT
#	Creation time:	15. 06. 2019 20:33

#	Modifying user name:	WinNT
#	Modification time:	15. 06. 2019 20:33

#	Program:	/corina/corina34_cracker 3.40 0067  02.08.2006

@<TRIPOS>MOLECULE
ASD03092720
  54   56    0    0    0
SMALL
NO_CHARGES


@<TRIPOS>ATOM
   1 C1            -0.0086     1.2149    -0.0703 C.2     
   2 O2             0.0101     0.0020     0.0149 O.2     
   3 C3             1.2585     1.9758    -0.0645 C.ar    
   4 C4             1.7585     2.5149    -1.2520 C.ar    
   5 C5             2.9414     3.2238    -1.2394 C.ar    
   6 C6             3.6330     3.4010    -0.0538 C.ar    
   7 C7             3.1438     2.8693     1.1262 C.ar    
   8 C8             1.9582     2.1638     1.1291 C.ar    
   9 C9             1.0072     2.3221    -2.5441 C.3     
  10 C10           -2.4984     1.2093    -0.3185 C.ar    
  11 C11           -1.2941     1.9256    -0.1853 C.ar    
  12 C12           -1.3384     3.3233    -0.1635 C.ar    
  13 C13           -2.5809     3.9462    -0.2754 C.ar    
  14 C14           -3.7277     3.1625    -0.4042 C.ar    
  15 N15           -3.6542     1.8474    -0.4211 N.ar    
  16 N16           -2.4738    -0.1719    -0.3478 N.pl3   
  17 C17           -3.7064    -0.9211    -0.6039 C.3     
  18 C18           -3.4053    -2.4210    -0.5828 C.3     
  19 C19           -4.6925    -3.2035    -0.8502 C.3     
  20 C20           -2.6822     5.4264    -0.2572 C.ar    
  21 C21           -3.9273     6.0425    -0.3695 C.ar    
  22 C22           -4.0182     7.4186    -0.3524 C.ar    
  23 C23           -2.8712     8.1899    -0.2239 C.ar    
  24 C24           -1.6297     7.5790    -0.1118 C.ar    
  25 C25           -1.5330     6.2032    -0.1221 C.ar    
  26 O26           -2.9639     9.5455    -0.2082 O.3     
  27 C27           -1.7441    10.2776    -0.0731 C.3     
  28 C28           -2.0466    11.7774    -0.0757 C.3     
  29 H29            3.3291     3.6412    -2.1569 H       
  30 H30            4.5591     3.9566    -0.0496 H       
  31 H31            3.6887     3.0110     2.0478 H       
  32 H32            1.5750     1.7533     2.0516 H       
  33 H33            0.2419     3.0926    -2.6379 H       
  34 H34            1.7007     2.3950    -3.3819 H       
  35 H35            0.5358     1.3394    -2.5471 H       
  36 H36           -0.4340     3.9049    -0.0623 H       
  37 H37           -4.6916     3.6418    -0.4911 H       
  38 H38           -1.6405    -0.6454    -0.1988 H       
  39 H39           -4.4407    -0.6871     0.1669 H       
  40 H40           -4.1038    -0.6441    -1.5803 H       
  41 H41           -2.6710    -2.6551    -1.3536 H       
  42 H42           -3.0079    -2.6981     0.3937 H       
  43 H43           -4.4780    -4.2721    -0.8352 H       
  44 H44           -5.4268    -2.9695    -0.0794 H       
  45 H45           -5.0899    -2.9264    -1.8267 H       
  46 H46           -4.8199     5.4429    -0.4703 H       
  47 H47           -4.9828     7.8966    -0.4394 H       
  48 H48           -0.7390     8.1817    -0.0123 H       
  49 H49           -0.5673     5.7285    -0.0304 H       
  50 H50           -1.2594    10.0063     0.8648 H       
  51 H51           -1.0829    10.0389    -0.9061 H       
  52 H52           -2.7077    12.0162     0.7574 H       
  53 H53           -1.1162    12.3359     0.0273 H       
  54 H54           -2.5312    12.0487    -1.0135 H       
@<TRIPOS>BOND
   1    1    2 2
   2    1    3 1
   3    1   11 1
   4    3    4 ar
   5    3    8 ar
   6    4    5 ar
   7    4    9 1
   8    5    6 ar
   9    5   29 1
  10    6    7 ar
  11    6   30 1
  12    7    8 ar
  13    7   31 1
  14    8   32 1
  15    9   33 1
  16    9   34 1
  17    9   35 1
  18   10   11 ar
  19   10   15 ar
  20   10   16 1
  21   11   12 ar
  22   12   13 ar
  23   12   36 1
  24   13   14 ar
  25   13   20 1
  26   14   15 ar
  27   14   37 1
  28   16   17 1
  29   16   38 1
  30   17   18 1
  31   17   39 1
  32   17   40 1
  33   18   19 1
  34   18   41 1
  35   18   42 1
  36   19   43 1
  37   19   44 1
  38   19   45 1
  39   20   21 ar
  40   20   25 ar
  41   21   22 ar
  42   21   46 1
  43   22   23 ar
  44   22   47 1
  45   23   24 ar
  46   23   26 1
  47   24   25 ar
  48   24   48 1
  49   25   49 1
  50   26   27 1
  51   27   28 1
  52   27   50 1
  53   27   51 1
  54   28   52 1
  55   28   53 1
  56   28   54 1

#	End of record

