#	Name: ASD01910820
#	Creating user name:	WinNT
#	Creation time:	15. 06. 2019 19:56

#	Modifying user name:	WinNT
#	Modification time:	15. 06. 2019 19:56

#	Program:	/corina/corina34_cracker 3.40 0067  02.08.2006

@<TRIPOS>MOLECULE
ASD01910820
  21   21    0    0    0
SMALL
NO_CHARGES


@<TRIPOS>ATOM
   1 C1            -0.0167     1.3770     0.0096 C.ar    
   2 C2             0.0021    -0.0041     0.0020 C.ar    
   3 C3             1.2134    -0.6804    -0.0132 C.ar    
   4 C4             2.4034     0.0320    -0.0207 C.ar    
   5 C5             2.3806     1.4134    -0.0130 C.ar    
   6 C6             1.1717     2.0861     0.0021 C.ar    
   7 Cl7            1.1456     3.8218     0.0116 Cl      
   8 O8             1.2338    -2.0395    -0.0202 O.3     
   9 C9             3.6732     2.1880    -0.0212 C.3     
  10 N10            4.7666     1.3207     0.4374 N.3     
  11 C11            3.9640     2.6653    -1.4207 C.2     
  12 O12            4.7533     2.0658    -2.1117 O.2     
  13 O13            3.3461     3.7565    -1.8996 O.3     
  14 H14           -0.9594     1.9039     0.0169 H       
  15 H15           -0.9256    -0.5571     0.0082 H       
  16 H16            3.3473    -0.4928    -0.0321 H       
  17 H17            1.2312    -2.4283    -0.9056 H       
  18 H18            3.5866     3.0465     0.6448 H       
  19 H19            4.8673     0.5170    -0.1642 H       
  20 H20            5.6326     1.8344     0.5025 H       
  21 H21            3.5650     4.0241    -2.8027 H       
@<TRIPOS>BOND
   1    1    2 ar
   2    1    6 ar
   3    1   14 1
   4    2    3 ar
   5    2   15 1
   6    3    4 ar
   7    3    8 1
   8    4    5 ar
   9    4   16 1
  10    5    6 ar
  11    5    9 1
  12    6    7 1
  13    8   17 1
  14    9   10 1
  15    9   11 1
  16    9   18 1
  17   10   19 1
  18   10   20 1
  19   11   12 2
  20   11   13 1
  21   13   21 1

#	End of record

