#	Name: ASD01816297
#	Creating user name:	WinNT
#	Creation time:	15. 06. 2019 19:35

#	Modifying user name:	WinNT
#	Modification time:	15. 06. 2019 19:35

#	Program:	/corina/corina34_cracker 3.40 0067  02.08.2006

@<TRIPOS>MOLECULE
ASD01816297
  69   75    0    0    0
SMALL
NO_CHARGES


@<TRIPOS>ATOM
   1 C1            -0.0167     1.3812     0.0096 C.ar    
   2 C2             0.0021    -0.0041     0.0020 C.ar    
   3 C3             1.1984    -0.6908    -0.0131 C.ar    
   4 C4             2.4015     0.0061    -0.0204 C.ar    
   5 C5             2.3789     1.4106    -0.0127 C.ar    
   6 C6             1.1664     2.0916     0.0022 C.ar    
   7 N7             3.6054    -0.6770    -0.0347 N.pl3   
   8 C8             4.7971    -0.0584    -0.0423 C.2     
   9 C9             4.9001     1.3105    -0.0364 C.2     
  10 C10            3.6673     2.1304    -0.0207 C.2     
  11 C11            5.9972     2.2731    -0.0422 C.2     
  12 N12            5.4244     3.4961    -0.0313 N.am    
  13 N13            4.0322     3.3795    -0.0185 N.2     
  14 O14            7.1917     2.0232    -0.0541 O.2     
  15 C15            3.5781    -2.1418    -0.0413 C.3     
  16 C16            3.5556    -2.6374    -1.4643 C.ar    
  17 C17            4.7435    -2.8866    -2.1269 C.ar    
  18 C18            4.7261    -3.3404    -3.4313 C.ar    
  19 C19            3.5145    -3.5468    -4.0770 C.ar    
  20 C20            2.3235    -3.2961    -3.4089 C.ar    
  21 C21            2.3472    -2.8473    -2.1028 C.ar    
  22 N22            3.4936    -4.0069    -5.4010 N.pl3   
  23 C23            2.3887    -4.2482    -6.1424 C.2     
  24 C24            2.7953    -4.6776    -7.3595 C.2     
  25 C25            4.1944    -4.6999    -7.3632 C.2     
  26 N26            4.6137    -4.2925    -6.1923 N.2     
  27 C27            6.1581     4.7641    -0.0316 C.3     
  28 C28            5.7790     5.5744    -1.2743 C.3     
  29 C29            5.7948     5.5659     1.2213 C.3     
  30 C30            6.5171     6.9146     1.1851 C.3     
  31 N31            6.1204     7.6515    -0.0215 N.3     
  32 C32            6.5017     6.9229    -1.2381 C.3     
  33 C33            6.6866     9.0071    -0.0205 C.3     
  34 C34            6.4688     9.6435    -1.3690 C.ar    
  35 C35            5.3200    10.3732    -1.6115 C.ar    
  36 C36            5.1202    10.9569    -2.8485 C.ar    
  37 C37            6.0694    10.8113    -3.8429 C.ar    
  38 C38            7.2186    10.0824    -3.6001 C.ar    
  39 C39            7.4204     9.5023    -2.3617 C.ar    
  40 H40           -0.9602     1.9068     0.0170 H       
  41 H41           -0.9288    -0.5516     0.0083 H       
  42 H42            1.2005    -1.7708    -0.0189 H       
  43 H43            1.1508     3.1714     0.0084 H       
  44 H44            5.6984    -0.6535    -0.0530 H       
  45 H45            4.4658    -2.5240     0.4626 H       
  46 H46            2.6862    -2.4908     0.4791 H       
  47 H47            5.6857    -2.7259    -1.6242 H       
  48 H48            5.6542    -3.5343    -3.9486 H       
  49 H49            1.3794    -3.4554    -3.9087 H       
  50 H50            1.4211    -2.6521    -1.5826 H       
  51 H51            1.3656    -4.1215    -5.8207 H       
  52 H52            2.1533    -4.9543    -8.1827 H       
  53 H53            4.8205    -4.9976    -8.1913 H       
  54 H54            7.2297     4.5649    -0.0397 H       
  55 H55            6.0742     5.0272    -2.1696 H       
  56 H56            4.7016     5.7392    -1.2865 H       
  57 H57            4.7177     5.7305     1.2483 H       
  58 H58            6.1014     5.0126     2.1090 H       
  59 H59            6.2493     7.4938     2.0689 H       
  60 H60            7.5944     6.7494     1.1720 H       
  61 H61            7.5791     6.7577    -1.2398 H       
  62 H62            6.2228     7.5081    -2.1144 H       
  63 H63            6.1957     9.6053     0.7472 H       
  64 H64            7.7552     8.9543     0.1881 H       
  65 H65            4.5785    10.4869    -0.8346 H       
  66 H66            4.2224    11.5264    -3.0382 H       
  67 H67            5.9129    11.2668    -4.8096 H       
  68 H68            7.9600     9.9684    -4.3771 H       
  69 H69            8.3182     8.9328    -2.1720 H       
@<TRIPOS>BOND
   1    1    2 ar
   2    1    6 ar
   3    1   40 1
   4    2    3 ar
   5    2   41 1
   6    3    4 ar
   7    3   42 1
   8    4    5 ar
   9    4    7 1
  10    5    6 ar
  11    5   10 1
  12    6   43 1
  13    7    8 1
  14    7   15 1
  15    8    9 2
  16    8   44 1
  17    9   10 1
  18    9   11 1
  19   10   13 2
  20   11   12 am
  21   11   14 2
  22   12   13 1
  23   12   27 1
  24   15   16 1
  25   15   45 1
  26   15   46 1
  27   16   17 ar
  28   16   21 ar
  29   17   18 ar
  30   17   47 1
  31   18   19 ar
  32   18   48 1
  33   19   20 ar
  34   19   22 1
  35   20   21 ar
  36   20   49 1
  37   21   50 1
  38   22   23 1
  39   22   26 1
  40   23   24 2
  41   23   51 1
  42   24   25 1
  43   24   52 1
  44   25   26 2
  45   25   53 1
  46   27   28 1
  47   27   29 1
  48   27   54 1
  49   28   32 1
  50   28   55 1
  51   28   56 1
  52   29   30 1
  53   29   57 1
  54   29   58 1
  55   30   31 1
  56   30   59 1
  57   30   60 1
  58   31   32 1
  59   31   33 1
  60   32   61 1
  61   32   62 1
  62   33   34 1
  63   33   63 1
  64   33   64 1
  65   34   35 ar
  66   34   39 ar
  67   35   36 ar
  68   35   65 1
  69   36   37 ar
  70   36   66 1
  71   37   38 ar
  72   37   67 1
  73   38   39 ar
  74   38   68 1
  75   39   69 1

#	End of record

