#	Name: ASD01810977
#	Creating user name:	WinNT
#	Creation time:	15. 06. 2019 19:25

#	Modifying user name:	WinNT
#	Modification time:	15. 06. 2019 19:25

#	Program:	/corina/corina34_cracker 3.40 0067  02.08.2006

@<TRIPOS>MOLECULE
ASD01810977
  65   68    0    0    0
SMALL
NO_CHARGES


@<TRIPOS>ATOM
   1 C1            -9.1151     3.5757    -4.2471 C.1     
   2 C2            -7.9646     4.1869    -3.6525 C.ar    
   3 C3            -6.7901     3.4516    -3.4803 C.ar    
   4 C4            -5.6855     4.0466    -2.9068 C.ar    
   5 C5            -5.7398     5.3686    -2.5022 C.ar    
   6 C6            -6.9005     6.1029    -2.6694 C.ar    
   7 C7            -8.0103     5.5224    -3.2476 C.ar    
   8 N8           -10.0278     3.0909    -4.7188 N.1     
   9 N9            -3.1228     8.1641    -0.6975 N.am    
  10 C10           -2.8416     7.8392    -2.1025 C.3     
  11 C11           -4.0926     7.2092    -2.7229 C.3     
  12 C12           -4.5292     6.0116    -1.8760 C.3     
  13 C13           -4.8766     6.4838    -0.4623 C.3     
  14 C14           -3.6344     7.1056     0.1837 C.3     
  15 C15           -2.9103     9.4082    -0.2245 C.2     
  16 C16           -3.2781     9.7426     1.1680 C.ar    
  17 C17           -4.1429    10.8085     1.4269 C.ar    
  18 C18           -4.4871    11.1217     2.7265 C.ar    
  19 C19           -3.9798    10.3846     3.7786 C.ar    
  20 C20           -3.1149     9.3166     3.5337 C.ar    
  21 C21           -2.7675     8.9916     2.2246 C.ar    
  22 O22           -2.4162    10.2552    -0.9428 O.2     
  23 C23           -4.7009    11.6185     0.2852 C.3     
  24 N24           -2.2496     7.7883     6.6290 N.2     
  25 N25           -2.9265     8.6235     5.9243 N.2     
  26 C26           -2.5720     8.5285     4.6622 C.2     
  27 N27           -1.6054     7.5624     4.5900 N.pl3   
  28 C28           -1.4306     7.1173     5.8641 C.2     
  29 C29           -0.4688     6.0465     6.3105 C.3     
  30 O30            0.2525     5.5527     5.1800 O.3     
  31 C31            1.1966     4.5274     5.4955 C.3     
  32 C32           -4.3603    10.7345     5.1942 C.3     
  33 C33           -4.0975    12.2216     5.4402 C.3     
  34 C34           -5.8451    10.4362     5.4117 C.3     
  35 H35           -6.7466     2.4194    -3.7951 H       
  36 H36           -4.7764     3.4791    -2.7731 H       
  37 H37           -6.9361     7.1342    -2.3510 H       
  38 H38           -8.9142     6.0981    -3.3820 H       
  39 H39           -2.5842     8.7497    -2.6436 H       
  40 H40           -2.0125     7.1335    -2.1554 H       
  41 H41           -4.8950     7.9463    -2.7516 H       
  42 H42           -3.8678     6.8758    -3.7360 H       
  43 H43           -3.7172     5.2861    -1.8270 H       
  44 H44           -5.6716     7.2277    -0.5124 H       
  45 H45           -5.2098     5.6340     0.1335 H       
  46 H46           -2.8700     6.3401     0.3172 H       
  47 H47           -3.9003     7.5320     1.1509 H       
  48 H48           -5.1559    11.9470     2.9215 H       
  49 H49           -2.1017     8.1639     2.0297 H       
  50 H50           -5.5864    11.1231    -0.1131 H       
  51 H51           -4.9704    12.6124     0.6424 H       
  52 H52           -3.9495    11.7058    -0.4996 H       
  53 H53           -1.1409     7.2577     3.7949 H       
  54 H54            0.2313     6.4653     7.0334 H       
  55 H55           -1.0233     5.2299     6.7728 H       
  56 H56            1.9312     4.9147     6.2016 H       
  57 H57            0.6766     3.6793     5.9409 H       
  58 H58            1.7021     4.2063     4.5848 H       
  59 H59           -3.7650    10.1407     5.8878 H       
  60 H60           -4.3728    12.4746     6.4641 H       
  61 H61           -3.0398    12.4341     5.2853 H       
  62 H62           -4.6929    12.8154     4.7466 H       
  63 H63           -6.0323     9.3768     5.2364 H       
  64 H64           -6.1204    10.6892     6.4356 H       
  65 H65           -6.4404    11.0300     4.7181 H       
@<TRIPOS>BOND
   1    1    2 1
   2    1    8 3
   3    2    3 ar
   4    2    7 ar
   5    3    4 ar
   6    3   35 1
   7    4    5 ar
   8    4   36 1
   9    5    6 ar
  10    5   12 1
  11    6    7 ar
  12    6   37 1
  13    7   38 1
  14    9   10 1
  15    9   14 1
  16    9   15 am
  17   10   11 1
  18   10   39 1
  19   10   40 1
  20   11   12 1
  21   11   41 1
  22   11   42 1
  23   12   13 1
  24   12   43 1
  25   13   14 1
  26   13   44 1
  27   13   45 1
  28   14   46 1
  29   14   47 1
  30   15   16 1
  31   15   22 2
  32   16   17 ar
  33   16   21 ar
  34   17   18 ar
  35   17   23 1
  36   18   19 ar
  37   18   48 1
  38   19   20 ar
  39   19   32 1
  40   20   21 ar
  41   20   26 1
  42   21   49 1
  43   23   50 1
  44   23   51 1
  45   23   52 1
  46   24   25 1
  47   24   28 2
  48   25   26 2
  49   26   27 1
  50   27   28 1
  51   27   53 1
  52   28   29 1
  53   29   30 1
  54   29   54 1
  55   29   55 1
  56   30   31 1
  57   31   56 1
  58   31   57 1
  59   31   58 1
  60   32   33 1
  61   32   34 1
  62   32   59 1
  63   33   60 1
  64   33   61 1
  65   33   62 1
  66   34   63 1
  67   34   64 1
  68   34   65 1

#	End of record

