#	Name: ASD08520004
#	Creating user name:	WinNT
#	Creation time:	15. 06. 2019 21:19

#	Modifying user name:	WinNT
#	Modification time:	15. 06. 2019 21:19

#	Program:	/corina/corina34_cracker 3.40 0067  02.08.2006

@<TRIPOS>MOLECULE
ASD08520004
  60   64    0    0    0
SMALL
NO_CHARGES


@<TRIPOS>ATOM
   1 C1            -0.0169     1.3936     0.0097 C.ar    
   2 C2             0.0021    -0.0041     0.0020 C.ar    
   3 C3            -1.1541    -0.7213     0.0092 C.ar    
   4 C4            -2.3915    -0.0552     0.0245 C.ar    
   5 C5            -2.4111     1.3630     0.0324 C.ar    
   6 C6            -1.2009     2.0753     0.0303 C.ar    
   7 N7            -3.5393    -0.7432     0.0313 N.ar    
   8 C8            -4.7013    -0.1432     0.0452 C.ar    
   9 C9            -4.8049     1.2597     0.0538 C.ar    
  10 C10           -3.6479     2.0306     0.0478 C.ar    
  11 O11            1.1549     2.0818     0.0022 O.3     
  12 C12            2.3590     1.3124    -0.0134 C.3     
  13 C13           -3.7178     3.5360     0.0565 C.3     
  14 C14           -6.0914     1.8885     0.0690 C.1     
  15 N15           -3.7969     5.5050     1.5104 N.3     
  16 C16           -4.0472     6.0124     2.8655 C.3     
  17 C17           -4.2563     7.5275     2.8138 C.3     
  18 C18           -3.0088     8.1902     2.2230 C.3     
  19 C19           -2.7424     7.6092     0.8315 C.3     
  20 C20           -2.5772     6.0917     0.9407 C.3     
  21 N21           -3.2262     9.6391     2.1167 N.3     
  22 C22           -1.9496    10.3657     2.1352 C.3     
  23 C23           -2.2122    11.8455     2.0245 C.ar    
  24 C24           -3.7288     4.0376     1.5019 C.3     
  25 N25           -7.1120     2.3874     0.0811 N.1     
  26 C26           -2.2921    12.6228     3.1664 C.ar    
  27 C27           -2.5345    13.9748     3.0335 C.ar    
  28 C28           -2.7096    14.5530     1.7676 C.ar    
  29 C29           -2.6043    13.6861     0.6761 C.ar    
  30 N30           -2.3613    12.4038     0.8379 N.ar    
  31 S31           -2.6836    15.3107     4.1914 S.3     
  32 C32           -2.5572    16.6173     2.9047 C.3     
  33 O33           -2.9769    15.8827     1.7390 O.3     
  34 H34            0.9493    -0.5227    -0.0102 H       
  35 H35           -1.1210    -1.8008     0.0027 H       
  36 H36           -1.2060     3.1553     0.0362 H       
  37 H37           -5.6023    -0.7386     0.0498 H       
  38 H38            2.3800     0.6886    -0.9070 H       
  39 H39            3.2185     1.9828    -0.0180 H       
  40 H40            2.3970     0.6791     0.8729 H       
  41 H41           -2.8501     3.9430    -0.4627 H       
  42 H42           -4.6281     3.8604    -0.4476 H       
  43 H43           -4.9394     5.5364     3.2725 H       
  44 H44           -3.1921     5.7853     3.5021 H       
  45 H45           -5.1197     7.7546     2.1885 H       
  46 H46           -4.4266     7.9060     3.8217 H       
  47 H47           -2.1526     7.9958     2.8689 H       
  48 H48           -3.5820     7.8376     0.1750 H       
  49 H49           -1.8311     8.0461     0.4232 H       
  50 H50           -1.7289     5.8643     1.5863 H       
  51 H51           -2.4016     5.6733    -0.0504 H       
  52 H52           -3.7589     9.8651     1.2901 H       
  53 H53           -1.4270    10.1583     3.0690 H       
  54 H54           -1.3350    10.0420     1.2952 H       
  55 H55           -4.5965     3.6307     2.0212 H       
  56 H56           -2.8185     3.7132     2.0061 H       
  57 H57           -2.1674    12.1796     4.1433 H       
  58 H58           -2.7207    14.0791    -0.3231 H       
  59 H59           -3.2357    17.4441     3.1148 H       
  60 H60           -1.5309    16.9694     2.8002 H       
@<TRIPOS>BOND
   1    1    2 ar
   2    1   11 1
   3    1    6 ar
   4    2    3 ar
   5    2   34 1
   6    3    4 ar
   7    3   35 1
   8    4    5 ar
   9    4    7 ar
  10    5    6 ar
  11    5   10 ar
  12    6   36 1
  13    7    8 ar
  14    8    9 ar
  15    8   37 1
  16    9   10 ar
  17    9   14 1
  18   10   13 1
  19   11   12 1
  20   12   38 1
  21   12   39 1
  22   12   40 1
  23   13   24 1
  24   13   41 1
  25   13   42 1
  26   14   25 3
  27   15   16 1
  28   15   20 1
  29   15   24 1
  30   16   17 1
  31   16   43 1
  32   16   44 1
  33   17   18 1
  34   17   45 1
  35   17   46 1
  36   18   19 1
  37   18   21 1
  38   18   47 1
  39   19   20 1
  40   19   48 1
  41   19   49 1
  42   20   50 1
  43   20   51 1
  44   21   22 1
  45   21   52 1
  46   22   23 1
  47   22   53 1
  48   22   54 1
  49   23   26 ar
  50   23   30 ar
  51   24   55 1
  52   24   56 1
  53   26   27 ar
  54   26   57 1
  55   27   28 ar
  56   27   31 1
  57   28   29 ar
  58   28   33 1
  59   29   30 ar
  60   29   58 1
  61   31   32 1
  62   32   33 1
  63   32   59 1
  64   32   60 1

#	End of record

