#	Name: ASD00311337
#	Creating user name:	WinNT
#	Creation time:	15. 06. 2019 18:34

#	Modifying user name:	WinNT
#	Modification time:	15. 06. 2019 18:34

#	Program:	/corina/corina34_cracker 3.40 0067  02.08.2006

@<TRIPOS>MOLECULE
ASD00311337
  37   40    0    0    0
SMALL
NO_CHARGES


@<TRIPOS>ATOM
   1 C1            -0.0167     1.3778     0.0096 C.2     
   2 C2             0.0021    -0.0041     0.0020 C.2     
   3 C3             1.2589    -0.6766    -0.0128 C.2     
   4 C4             2.4316     0.0673    -0.0193 C.2     
   5 C5             2.3574     1.4753    -0.0111 C.2     
   6 N6             1.1648     2.0904     0.0022 N.am    
   7 C7            -1.3431    -0.5750     0.0118 C.2     
   8 C8            -2.3223     0.3256     0.0260 C.2     
   9 S9            -1.6794     1.9560     0.0358 S.3     
  10 O10            3.3823     2.1374    -0.0167 O.2     
  11 C11            3.7477    -0.6119    -0.0343 C.ar    
  12 C12            4.5942    -0.4744    -1.1343 C.ar    
  13 C13            5.8190    -1.1097    -1.1423 C.ar    
  14 C14            6.2081    -1.8817    -0.0622 C.ar    
  15 C15            5.3730    -2.0218     1.0318 C.ar    
  16 C16            4.1481    -1.3869     1.0540 C.ar    
  17 C17           -1.5955    -2.0355     0.0063 C.ar    
  18 C18           -2.4695    -2.5972     0.9355 C.ar    
  19 C19           -2.7012    -3.9621     0.9254 C.ar    
  20 C20           -2.0633    -4.7682    -0.0091 C.ar    
  21 C21           -1.1957    -4.2116    -0.9309 C.ar    
  22 C22           -0.9637    -2.8507    -0.9319 C.ar    
  23 Br23          -2.3819    -6.6322    -0.0202 Br      
  24 O24           -3.5524    -4.5135     1.8302 O.3     
  25 O25            1.3089    -2.0291    -0.0201 O.3     
  26 H26            1.1326     3.0599     0.0073 H       
  27 H27           -3.3749     0.0838     0.0344 H       
  28 H28            4.2913     0.1277    -1.9782 H       
  29 H29            6.4752    -1.0043    -1.9936 H       
  30 H30            7.1676    -2.3772    -0.0733 H       
  31 H31            5.6822    -2.6258     1.8720 H       
  32 H32            3.4988    -1.4934     1.9105 H       
  33 H33           -2.9645    -1.9694     1.6617 H       
  34 H34           -0.7017    -4.8426    -1.6549 H       
  35 H35           -0.2893    -2.4182    -1.6562 H       
  36 H36           -4.4712    -4.5548     1.5314 H       
  37 H37            2.2062    -2.3895    -0.0301 H       
@<TRIPOS>BOND
   1    1    2 2
   2    1    6 1
   3    1    9 1
   4    2    3 1
   5    2    7 1
   6    3    4 2
   7    3   25 1
   8    4    5 1
   9    4   11 1
  10    5    6 am
  11    5   10 2
  12    6   26 1
  13    7    8 2
  14    7   17 1
  15    8    9 1
  16    8   27 1
  17   11   12 ar
  18   11   16 ar
  19   12   13 ar
  20   12   28 1
  21   13   14 ar
  22   13   29 1
  23   14   15 ar
  24   14   30 1
  25   15   16 ar
  26   15   31 1
  27   16   32 1
  28   17   18 ar
  29   17   22 ar
  30   18   19 ar
  31   18   33 1
  32   19   20 ar
  33   19   24 1
  34   20   21 ar
  35   20   23 1
  36   21   22 ar
  37   21   34 1
  38   22   35 1
  39   24   36 1
  40   25   37 1

#	End of record

