#	Name: ASD01810040
#	Creating user name:	WinNT
#	Creation time:	15. 06. 2019 19:23

#	Modifying user name:	WinNT
#	Modification time:	15. 06. 2019 19:23

#	Program:	/corina/corina34_cracker 3.40 0067  02.08.2006

@<TRIPOS>MOLECULE
ASD01810040
  76   78    0    0    0
SMALL
NO_CHARGES


@<TRIPOS>ATOM
   1 C1            -0.0178     1.4648     0.0101 C.3     
   2 N2             0.0021    -0.0041     0.0020 N.4     
   3 C3             0.7126    -0.4907     1.1921 C.3     
   4 C4            -1.3761    -0.5125     0.0124 C.3     
   5 C5             0.6897    -0.4778    -1.2066 C.3     
   6 C6             2.1250     0.0518    -1.2175 C.3     
   7 C7             2.8412    -0.4417    -2.4763 C.3     
   8 C8             4.2766     0.0879    -2.4871 C.3     
   9 C9             4.9927    -0.4055    -3.7459 C.3     
  10 C10            6.4281     0.1241    -3.7568 C.3     
  11 N11            7.1157    -0.3497    -4.9654 N.4     
  12 C12            8.4938     0.1588    -4.9758 C.3     
  13 C13            9.2100    -0.3346    -6.2346 C.3     
  14 C14           10.6454     0.1950    -6.2455 C.3     
  15 N15           11.3311    -0.2775    -7.4508 N.am    
  16 C16           11.3496     0.3812    -8.6236 C.2     
  17 C17           12.1387    -0.4068    -9.5939 C.ar    
  18 C18           12.5681    -1.5555    -8.8993 C.ar    
  19 C19           12.0299    -1.4243    -7.5289 C.2     
  20 C20           12.4918    -0.2326   -10.9225 C.ar    
  21 C21           13.2654    -1.1905   -11.5591 C.ar    
  22 C22           13.6866    -2.3171   -10.8779 C.ar    
  23 C23           13.3411    -2.5047    -9.5487 C.ar    
  24 O24           10.8081     1.4449    -8.8479 O.2     
  25 O25           12.1866    -2.2218    -6.6264 O.2     
  26 C26            7.1356    -1.8185    -4.9735 C.3     
  27 C27            6.4052     0.1370    -6.1555 C.3     
  28 C28           -2.0651    -0.0378     1.2235 C.1     
  29 C29           -2.6146     0.3408     2.1894 C.1     
  30 C30           -3.3036     0.8155     3.4005 C.3     
  31 O31           -4.6442     0.3209     3.4107 O.3     
  32 C32           -5.4214     0.6692     4.4672 C.2     
  33 N33           -5.0753     1.4133     5.4834 N.2     
  34 O34           -5.9873     1.5465     6.2661 O.3     
  35 C35           -7.0863     0.8925     5.8633 C.2     
  36 C36           -6.7751     0.3030     4.6862 C.2     
  37 H37            1.0047     1.8421     0.0024 H       
  38 H38           -0.5450     1.8259    -0.8730 H       
  39 H39           -0.5280     1.8163     0.9069 H       
  40 H40            0.2024    -0.1392     2.0889 H       
  41 H41            0.7273    -1.5806     1.1861 H       
  42 H42            1.7352    -0.1134     1.1844 H       
  43 H43           -1.9033    -0.1515    -0.8706 H       
  44 H44           -1.3613    -1.6024     0.0064 H       
  45 H45            0.7044    -1.5677    -1.2126 H       
  46 H46            0.1625    -0.1167    -2.0897 H       
  47 H47            2.1103     1.1416    -1.2115 H       
  48 H48            2.6522    -0.3093    -0.3344 H       
  49 H49            2.8560    -1.5315    -2.4823 H       
  50 H50            2.3140    -0.0806    -3.3593 H       
  51 H51            4.2618     1.1778    -2.4811 H       
  52 H52            4.8038    -0.2732    -1.6041 H       
  53 H53            5.0075    -1.4954    -3.7519 H       
  54 H54            4.4655    -0.0444    -4.6290 H       
  55 H55            6.4133     1.2140    -3.7508 H       
  56 H56            6.9553    -0.2370    -2.8737 H       
  57 H57            8.4791     1.2487    -4.9698 H       
  58 H58            9.0210    -0.2023    -4.0928 H       
  59 H59            9.2248    -1.4245    -6.2406 H       
  60 H60            8.6828     0.0265    -7.1177 H       
  61 H61           10.6306     1.2848    -6.2395 H       
  62 H62           11.1725    -0.1661    -5.3624 H       
  63 H63           12.1653     0.6455   -11.4598 H       
  64 H64           13.5408    -1.0558   -12.5947 H       
  65 H65           14.2890    -3.0564   -11.3849 H       
  66 H66           13.6726    -3.3870    -9.0215 H       
  67 H67            6.1130    -2.1958    -4.9657 H       
  68 H68            7.6458    -2.1700    -5.8703 H       
  69 H69            7.6628    -2.1796    -4.0904 H       
  70 H70            6.3904     1.2269    -6.1495 H       
  71 H71            6.9154    -0.2146    -7.0523 H       
  72 H72            5.3826    -0.2403    -6.1478 H       
  73 H73           -2.7764     0.4544     4.2836 H       
  74 H74           -3.3183     1.9054     3.4065 H       
  75 H75           -8.0357     0.8485     6.3762 H       
  76 H76           -7.4080    -0.3095     4.0611 H       
@<TRIPOS>BOND
   1    1    2 1
   2    1   37 1
   3    1   38 1
   4    1   39 1
   5    2    3 1
   6    2    4 1
   7    2    5 1
   8    3   40 1
   9    3   41 1
  10    3   42 1
  11    4   28 1
  12    4   43 1
  13    4   44 1
  14    5    6 1
  15    5   45 1
  16    5   46 1
  17    6    7 1
  18    6   47 1
  19    6   48 1
  20    7    8 1
  21    7   49 1
  22    7   50 1
  23    8    9 1
  24    8   51 1
  25    8   52 1
  26    9   10 1
  27    9   53 1
  28    9   54 1
  29   10   11 1
  30   10   55 1
  31   10   56 1
  32   11   12 1
  33   11   26 1
  34   11   27 1
  35   12   13 1
  36   12   57 1
  37   12   58 1
  38   13   14 1
  39   13   59 1
  40   13   60 1
  41   14   15 1
  42   14   61 1
  43   14   62 1
  44   15   16 am
  45   15   19 am
  46   16   17 1
  47   16   24 2
  48   17   18 ar
  49   17   20 ar
  50   18   19 1
  51   18   23 ar
  52   19   25 2
  53   20   21 ar
  54   20   63 1
  55   21   22 ar
  56   21   64 1
  57   22   23 ar
  58   22   65 1
  59   23   66 1
  60   26   67 1
  61   26   68 1
  62   26   69 1
  63   27   70 1
  64   27   71 1
  65   27   72 1
  66   28   29 3
  67   29   30 1
  68   30   31 1
  69   30   73 1
  70   30   74 1
  71   31   32 1
  72   32   33 2
  73   32   36 1
  74   33   34 1
  75   34   35 1
  76   35   36 2
  77   35   75 1
  78   36   76 1

#	End of record

