#	Name: ASD03331510
#	Creating user name:	WinNT
#	Creation time:	15. 06. 2019 20:39

#	Modifying user name:	WinNT
#	Modification time:	15. 06. 2019 20:39

#	Program:	/corina/corina34_cracker 3.40 0067  02.08.2006

@<TRIPOS>MOLECULE
ASD03331510
  57   59    0    0    0
SMALL
NO_CHARGES


@<TRIPOS>ATOM
   1 C1            -0.0180     1.4750     0.0102 C.ar    
   2 C2             0.0021    -0.0041     0.0020 C.2     
   3 N3            -1.0260    -0.8167     0.3870 N.pl3   
   4 C4            -0.6035    -2.1002     0.2422 C.2     
   5 C5             0.6682    -2.0534    -0.2430 C.2     
   6 N6             1.0083    -0.7534    -0.3816 N.2     
   7 C7             1.5187    -3.2130    -0.5642 C.2     
   8 N8             2.7652    -3.0232    -1.0402 N.am    
   9 C9             1.1793     2.1911    -0.0015 C.ar    
  10 O10            1.0958    -4.3415    -0.3999 O.2     
  11 C11            3.6108    -4.1761    -1.3596 C.3     
  12 C12            1.1546     3.5722     0.0062 C.ar    
  13 C13           -0.0584     4.2459     0.0260 C.ar    
  14 C14           -1.2490     3.5376     0.0380 C.ar    
  15 C15           -1.2346     2.1584     0.0237 C.ar    
  16 C16           -2.3467    -0.3898     0.8578 C.3     
  17 C17           -2.9246    -1.4573     1.7897 C.3     
  18 C18           -3.7176    -2.4805     0.9782 C.3     
  19 C19           -2.8092    -3.1890    -0.0217 C.3     
  20 C20           -1.4052    -3.3310     0.5745 C.3     
  21 C21            3.3007    -4.6587    -2.7780 C.3     
  22 O22            6.0229    -4.6765    -1.5247 O.3     
  23 C23            5.0609    -3.7754    -1.2712 C.2     
  24 C24            7.3974    -4.2204    -1.4204 C.3     
  25 O25            5.3576    -2.6430    -0.9720 O.2     
  26 F26           -0.0785     5.5967     0.0339 F       
  27 F27            2.3127     4.2678    -0.0050 F       
  28 C28            3.5796    -3.5304    -3.7730 C.3     
  29 C29            4.1838    -5.8628    -3.1116 C.3     
  30 C30            1.8285    -5.0655    -2.8678 C.3     
  31 H31            3.1025    -2.1232    -1.1713 H       
  32 H32            2.1233     1.6668    -0.0162 H       
  33 H33            3.4121    -4.9799    -0.6508 H       
  34 H34           -2.1905     4.0664     0.0541 H       
  35 H35           -2.1637     1.6079     0.0331 H       
  36 H36           -2.2530     0.5522     1.3981 H       
  37 H37           -3.0107    -0.2547     0.0040 H       
  38 H38           -2.1111    -1.9611     2.3118 H       
  39 H39           -3.5829    -0.9841     2.5183 H       
  40 H40           -4.1532    -3.2167     1.6537 H       
  41 H41           -4.5177    -1.9718     0.4404 H       
  42 H42           -3.2122    -4.1776    -0.2416 H       
  43 H43           -2.7561    -2.6057    -0.9410 H       
  44 H44           -0.9169    -4.2092     0.1522 H       
  45 H45           -1.4778    -3.4376     1.6569 H       
  46 H46            8.0723    -5.0451    -1.6498 H       
  47 H47            7.5648    -3.4069    -2.1263 H       
  48 H48            7.5870    -3.8669    -0.4070 H       
  49 H49            4.6284    -3.2406    -3.7090 H       
  50 H50            3.3587    -3.8742    -4.7835 H       
  51 H51            2.9505    -2.6726    -3.5354 H       
  52 H52            3.9851    -6.6666    -2.4027 H       
  53 H53            3.9628    -6.2066    -4.1221 H       
  54 H54            5.2326    -5.5729    -3.0476 H       
  55 H55            1.1994    -4.2077    -2.6302 H       
  56 H56            1.6076    -5.4093    -3.8783 H       
  57 H57            1.6298    -5.8693    -2.1590 H       
@<TRIPOS>BOND
   1    1    2 1
   2    1    9 ar
   3    1   15 ar
   4    2    3 1
   5    2    6 2
   6    3    4 1
   7    3   16 1
   8    4    5 2
   9    4   20 1
  10    5    6 1
  11    5    7 1
  12    7    8 am
  13    7   10 2
  14    8   11 1
  15    8   31 1
  16    9   12 ar
  17    9   32 1
  18   11   21 1
  19   11   23 1
  20   11   33 1
  21   12   13 ar
  22   12   27 1
  23   13   14 ar
  24   13   26 1
  25   14   15 ar
  26   14   34 1
  27   15   35 1
  28   16   17 1
  29   16   36 1
  30   16   37 1
  31   17   18 1
  32   17   38 1
  33   17   39 1
  34   18   19 1
  35   18   40 1
  36   18   41 1
  37   19   20 1
  38   19   42 1
  39   19   43 1
  40   20   44 1
  41   20   45 1
  42   21   28 1
  43   21   29 1
  44   21   30 1
  45   22   23 1
  46   22   24 1
  47   23   25 2
  48   24   46 1
  49   24   47 1
  50   24   48 1
  51   28   49 1
  52   28   50 1
  53   28   51 1
  54   29   52 1
  55   29   53 1
  56   29   54 1
  57   30   55 1
  58   30   56 1
  59   30   57 1

#	End of record

