#	Name: ASD00110029
#	Creating user name:	WinNT
#	Creation time:	15. 06. 2019 18:30

#	Modifying user name:	WinNT
#	Modification time:	15. 06. 2019 18:30

#	Program:	/corina/corina34_cracker 3.40 0067  02.08.2006

@<TRIPOS>MOLECULE
ASD00110029
  58   60    0    0    0
SMALL
NO_CHARGES


@<TRIPOS>ATOM
   1 C1            -0.0187     1.5270     0.0104 C.3     
   2 C2            -1.4347    -0.5286    -0.0486 C.3     
   3 C3            -1.4185    -2.0352    -0.0770 C.2     
   4 N4            -1.2400    -2.7289     1.0647 N.am    
   5 O5            -1.5661    -2.6236    -1.1272 O.2     
   6 C6            -1.2243    -4.1935     1.0371 C.3     
   7 C7            -2.6586    -4.7205     1.1136 C.3     
   8 O8            -3.2272    -4.3723     2.3776 O.3     
   9 C9            -0.4240    -4.7175     2.2312 C.3     
  10 O10           -1.0950    -4.3695     3.4439 O.3     
  11 C11            1.4162     2.0578    -0.0004 C.3     
  12 C12            1.3972     3.5818     0.1337 C.3     
  13 N13           -2.0992    -0.0236    -1.2568 N.3     
  14 C14           -2.1732     1.4430    -1.2485 C.3     
  15 C15           -0.7585     2.0264    -1.2337 C.3     
  16 C16            0.0021    -0.0041     0.0020 C.3     
  17 C17            0.9513    -4.1016     2.2234 C.ar    
  18 C18            3.4744    -2.9713     2.2087 C.ar    
  19 C19            2.4193    -2.2992     2.7970 C.ar    
  20 C20            1.1578    -2.8642     2.8041 C.ar    
  21 C21            2.0076    -4.7764     1.6406 C.ar    
  22 C22            3.2692    -4.2114     1.6335 C.ar    
  23 C23            2.8105     4.1047     0.1230 C.ar    
  24 C24            3.5083     4.2350     1.3092 C.ar    
  25 C25            3.4112     4.4488    -1.0736 C.ar    
  26 C26            4.7076     4.9285    -1.0834 C.ar    
  27 C27            5.4032     5.0645     0.1034 C.ar    
  28 C28            4.8047     4.7146     1.2994 C.ar    
  29 H29           -0.5307     1.8794     0.9058 H       
  30 H30           -1.9769    -0.1878     0.8335 H       
  31 H31           -1.1220    -2.2583     1.9047 H       
  32 H32           -0.7608    -4.5345     0.1113 H       
  33 H33           -3.2518    -4.2771     0.3139 H       
  34 H34           -2.6536    -5.8050     1.0039 H       
  35 H35           -4.1378    -4.6753     2.4961 H       
  36 H36           -0.3369    -5.8019     2.1625 H       
  37 H37           -1.2079    -3.4176     3.5717 H       
  38 H38            1.9695     1.6266     0.8339 H       
  39 H39            1.8987     1.7816    -0.9379 H       
  40 H40            0.8439     4.0131    -0.7006 H       
  41 H41            0.9147     3.8581     1.0712 H       
  42 H42           -1.6379    -0.3576    -2.0897 H       
  43 H43           -2.6979     1.7852    -2.1405 H       
  44 H44           -2.7120     1.7744    -0.3608 H       
  45 H45           -0.8139     3.1148    -1.2117 H       
  46 H46           -0.2236     1.7066    -2.1280 H       
  47 H47            0.5489    -0.3558    -0.8728 H       
  48 H48            0.4901    -0.3664     0.9068 H       
  49 H49            4.4600    -2.5298     2.2031 H       
  50 H50            2.5796    -1.3303     3.2464 H       
  51 H51            0.3333    -2.3388     3.2630 H       
  52 H52            1.8473    -5.7453     1.1912 H       
  53 H53            4.0935    -4.7365     1.1738 H       
  54 H54            3.0404     3.9623     2.2436 H       
  55 H55            2.8677     4.3425    -2.0008 H       
  56 H56            5.1771     5.1966    -2.0183 H       
  57 H57            6.4162     5.4389     0.0958 H       
  58 H58            5.3497     4.8167     2.2262 H       
@<TRIPOS>BOND
   1    1   16 1
   2    1   11 1
   3    1   15 1
   4    1   29 1
   5    2    3 1
   6    2   13 1
   7    2   16 1
   8    2   30 1
   9    3    4 am
  10    3    5 2
  11    4    6 1
  12    4   31 1
  13    6    7 1
  14    6    9 1
  15    6   32 1
  16    7    8 1
  17    7   33 1
  18    7   34 1
  19    8   35 1
  20    9   10 1
  21    9   17 1
  22    9   36 1
  23   10   37 1
  24   11   12 1
  25   11   38 1
  26   11   39 1
  27   12   23 1
  28   12   40 1
  29   12   41 1
  30   13   14 1
  31   13   42 1
  32   14   15 1
  33   14   43 1
  34   14   44 1
  35   15   45 1
  36   15   46 1
  37   16   47 1
  38   16   48 1
  39   17   21 ar
  40   17   20 ar
  41   18   19 ar
  42   18   22 ar
  43   18   49 1
  44   19   20 ar
  45   19   50 1
  46   20   51 1
  47   21   22 ar
  48   21   52 1
  49   22   53 1
  50   23   25 ar
  51   23   24 ar
  52   24   28 ar
  53   24   54 1
  54   25   26 ar
  55   25   55 1
  56   26   27 ar
  57   26   56 1
  58   27   28 ar
  59   27   57 1
  60   28   58 1

#	End of record

