#	Name: ASD01870631
#	Creating user name:	WinNT
#	Creation time:	15. 06. 2019 19:39

#	Modifying user name:	WinNT
#	Modification time:	15. 06. 2019 19:39

#	Program:	/corina/corina34_cracker 3.40 0067  02.08.2006

@<TRIPOS>MOLECULE
ASD01870631
  42   45    0    0    0
SMALL
NO_CHARGES


@<TRIPOS>ATOM
   1 N1            -0.0189     1.3109     0.0342 N.ar    
   2 C2             0.0869     0.0004     0.0710 C.ar    
   3 C3            -0.7587    -0.8031    -0.6768 C.ar    
   4 C4            -1.7282    -0.2135    -1.4733 C.ar    
   5 C5            -1.8167     1.1693    -1.4925 C.ar    
   6 C6            -0.9330     1.9149    -0.7149 C.ar    
   7 C7            -1.0145     3.3939    -0.7243 C.2     
   8 O8            -1.8496     3.9521    -1.4084 O.2     
   9 N9            -0.1625     4.1205     0.0257 N.am    
  10 C10           -0.1741     5.5173    -0.0570 C.ar    
  11 C11            1.0031     7.6072    -0.0379 C.ar    
  12 C12            1.0143     6.2288     0.0432 C.ar    
  13 C13           -1.3738     6.1920    -0.2450 C.ar    
  14 C14           -1.3848     7.5707    -0.3265 C.ar    
  15 C15           -0.1958     8.2822    -0.2204 C.ar    
  16 N16           -0.2068     9.6833    -0.3018 N.am    
  17 C17           -0.3120    11.9187     0.3357 C.3     
  18 C18           -0.3408    10.4704     0.7728 C.2     
  19 C19           -0.0785    10.3427    -1.4598 C.2     
  20 C20           -0.1323    11.8312    -1.1936 C.3     
  21 C21           -1.4121    12.4235    -0.6002 C.3     
  22 C22           -2.6894    11.5875    -0.7025 C.3     
  23 C23           -1.6053    13.9373    -0.7095 C.3     
  24 O24           -0.4659    10.0840     1.9150 O.2     
  25 O25            0.0594     9.8287    -2.5491 O.2     
  26 Cl26          -2.8835     8.4145    -0.5620 Cl      
  27 H27            0.8435    -0.4557     0.6923 H       
  28 H28           -0.6633    -1.8782    -0.6397 H       
  29 H29           -2.3990    -0.8181    -2.0656 H       
  30 H30           -2.5598     1.6622    -2.1018 H       
  31 H31            0.4588     3.6752     0.6229 H       
  32 H32            1.9275     8.1601     0.0404 H       
  33 H33            1.9475     5.7040     0.1849 H       
  34 H34           -2.2976     5.6386    -0.3277 H       
  35 H35            0.2523    12.6227     0.9473 H       
  36 H36            0.5656    12.4697    -1.7354 H       
  37 H37           -3.1565    11.5160     0.2798 H       
  38 H38           -3.3798    12.0626    -1.3994 H       
  39 H39           -2.4419    10.5882    -1.0607 H       
  40 H40           -0.6852    14.3958    -1.0720 H       
  41 H41           -2.4164    14.1508    -1.4056 H       
  42 H42           -1.8518    14.3439     0.2714 H       
@<TRIPOS>BOND
   1    1    2 ar
   2    1    6 ar
   3    2    3 ar
   4    2   27 1
   5    3    4 ar
   6    3   28 1
   7    4    5 ar
   8    4   29 1
   9    5    6 ar
  10    5   30 1
  11    6    7 1
  12    7    8 2
  13    7    9 am
  14    9   10 1
  15    9   31 1
  16   10   13 ar
  17   10   12 ar
  18   11   12 ar
  19   11   15 ar
  20   11   32 1
  21   12   33 1
  22   13   14 ar
  23   13   34 1
  24   14   15 ar
  25   14   26 1
  26   15   16 1
  27   16   19 am
  28   16   18 am
  29   17   18 1
  30   17   20 1
  31   17   21 1
  32   17   35 1
  33   18   24 2
  34   19   20 1
  35   19   25 2
  36   20   21 1
  37   20   36 1
  38   21   22 1
  39   21   23 1
  40   22   37 1
  41   22   38 1
  42   22   39 1
  43   23   40 1
  44   23   41 1
  45   23   42 1

#	End of record

