#	Name: ASD01882986
#	Creating user name:	WinNT
#	Creation time:	15. 06. 2019 19:45

#	Modifying user name:	WinNT
#	Modification time:	15. 06. 2019 19:45

#	Program:	/corina/corina34_cracker 3.40 0067  02.08.2006

@<TRIPOS>MOLECULE
ASD01882986
  47   50    0    0    0
SMALL
NO_CHARGES


@<TRIPOS>ATOM
   1 C1            -0.0159     1.3220     0.0093 C.2     
   2 N2             0.0021    -0.0041     0.0020 N.2     
   3 C3             1.1523    -0.6857    -0.0126 C.2     
   4 C4             2.3835     0.0173    -0.0206 C.2     
   5 C5             2.3523     1.3664    -0.0131 C.2     
   6 N6             1.1484     2.0132     0.0019 N.pl3   
   7 O7            -1.0993     2.1290     0.0184 O.3     
   8 C8             0.8540     3.4562     0.0125 C.3     
   9 C9            -0.6831     3.5211     0.0242 C.3     
  10 O10            1.1423    -1.9071    -0.0187 O.2     
  11 C11           -1.1944     4.2379    -1.2270 C.3     
  12 N12           -2.6568     4.3137    -1.1831 N.pl3   
  13 C13           -3.3558     4.9288    -2.2243 C.ar    
  14 C14           -4.7424     5.0016    -2.1842 C.ar    
  15 C15           -5.4304     5.6109    -3.2151 C.ar    
  16 C16           -4.7404     6.1482    -4.2864 C.ar    
  17 C17           -3.3601     6.0775    -4.3294 C.ar    
  18 C18           -2.6655     5.4743    -3.2993 C.ar    
  19 C19           -5.4946     6.8119    -5.4097 C.3     
  20 C20           -5.0526     8.2719    -5.5280 C.3     
  21 C21           -5.8183     8.9457    -6.6685 C.3     
  22 C22           -5.5248     8.2160    -7.9809 C.3     
  23 C23           -5.9668     6.7560    -7.8625 C.3     
  24 C24           -5.2011     6.0822    -6.7220 C.3     
  25 H25            3.3237    -0.5140    -0.0321 H       
  26 H26            3.2727     1.9314    -0.0185 H       
  27 H27            1.2651     3.9237     0.9072 H       
  28 H28            1.2480     3.9334    -0.8848 H       
  29 H29           -1.0396     4.0220     0.9243 H       
  30 H30           -0.7793     5.2451    -1.2639 H       
  31 H31           -0.8857     3.6850    -2.1142 H       
  32 H32           -3.1396     3.9368    -0.4310 H       
  33 H33           -5.2819     4.5819    -1.3481 H       
  34 H34           -6.5085     5.6675    -3.1848 H       
  35 H35           -2.8243     6.4982    -5.1675 H       
  36 H36           -1.5872     5.4233    -3.3314 H       
  37 H37           -6.5641     6.7717    -5.2029 H       
  38 H38           -5.2617     8.7917    -4.5931 H       
  39 H39           -3.9831     8.3121    -5.7348 H       
  40 H40           -6.8877     8.9055    -6.4617 H       
  41 H41           -5.5034     9.9858    -6.7528 H       
  42 H42           -6.0703     8.6960    -8.7933 H       
  43 H43           -4.4553     8.2562    -8.1877 H       
  44 H44           -7.0362     6.7158    -7.6557 H       
  45 H45           -5.7577     6.2361    -8.7974 H       
  46 H46           -4.1317     6.1224    -6.9288 H       
  47 H47           -5.5160     5.0421    -6.6377 H       
@<TRIPOS>BOND
   1    1    2 2
   2    1    6 1
   3    1    7 1
   4    2    3 1
   5    3    4 1
   6    3   10 2
   7    4    5 2
   8    4   25 1
   9    5    6 1
  10    5   26 1
  11    6    8 1
  12    7    9 1
  13    8    9 1
  14    8   27 1
  15    8   28 1
  16    9   11 1
  17    9   29 1
  18   11   12 1
  19   11   30 1
  20   11   31 1
  21   12   13 1
  22   12   32 1
  23   13   14 ar
  24   13   18 ar
  25   14   15 ar
  26   14   33 1
  27   15   16 ar
  28   15   34 1
  29   16   17 ar
  30   16   19 1
  31   17   18 ar
  32   17   35 1
  33   18   36 1
  34   19   20 1
  35   19   24 1
  36   19   37 1
  37   20   21 1
  38   20   38 1
  39   20   39 1
  40   21   22 1
  41   21   40 1
  42   21   41 1
  43   22   23 1
  44   22   42 1
  45   22   43 1
  46   23   24 1
  47   23   44 1
  48   23   45 1
  49   24   46 1
  50   24   47 1

#	End of record

