#	Name: ASD01816042
#	Creating user name:	WinNT
#	Creation time:	15. 06. 2019 19:34

#	Modifying user name:	WinNT
#	Modification time:	15. 06. 2019 19:34

#	Program:	/corina/corina34_cracker 3.40 0067  02.08.2006

@<TRIPOS>MOLECULE
ASD01816042
  58   64    0    0    0
SMALL
NO_CHARGES


@<TRIPOS>ATOM
   1 C1            -0.0167     1.3813     0.0096 C.ar    
   2 C2             0.0021    -0.0041     0.0020 C.ar    
   3 C3             1.1984    -0.6909    -0.0131 C.ar    
   4 C4             2.4015     0.0059    -0.0209 C.ar    
   5 C5             2.3790     1.4106    -0.0132 C.ar    
   6 C6             1.1663     2.0916     0.0022 C.ar    
   7 N7             3.6053    -0.6772    -0.0356 N.pl3   
   8 C8             4.7970    -0.0586    -0.0433 C.2     
   9 C9             4.9000     1.3103    -0.0373 C.2     
  10 C10            3.6670     2.1301    -0.0217 C.2     
  11 C11            5.9971     2.2729    -0.0432 C.2     
  12 N12            5.4245     3.4960    -0.0323 N.am    
  13 N13            4.0323     3.3799    -0.0195 N.2     
  14 C14            6.1264     4.7082    -0.0333 C.ar    
  15 O15            7.1914     2.0229    -0.0548 O.2     
  16 C16            3.5779    -2.1419    -0.0427 C.3     
  17 C17            6.5546     5.2634    -1.2317 C.ar    
  18 C18            7.2466     6.4588    -1.2297 C.ar    
  19 C19            7.5142     7.1036    -0.0359 C.ar    
  20 C20            7.0900     6.5550     1.1603 C.ar    
  21 C21            6.3912     5.3614     1.1656 C.ar    
  22 F22            5.9763     4.8253     2.3342 F       
  23 C23            3.5552    -2.6371    -1.4659 C.ar    
  24 C24            4.7497    -2.8857    -2.1273 C.ar    
  25 C25            4.7507    -3.3391    -3.4284 C.ar    
  26 C26            3.5450    -3.5507    -4.0881 C.ar    
  27 C27            2.3351    -3.2968    -3.4129 C.ar    
  28 C28            2.3587    -2.8429    -2.0927 C.ar    
  29 N29            3.2221    -3.9865    -5.3548 N.pl3   
  30 C30            1.8644    -4.0161    -5.5054 C.2     
  31 C31            1.2744    -3.6096    -4.3651 C.2     
  32 C32            1.1005    -4.4336    -6.7411 C.3     
  33 C33           -0.3524    -4.7163    -6.3433 C.3     
  34 C34           -0.8987    -3.5391    -5.5306 C.3     
  35 C35           -0.2150    -3.5100    -4.1580 C.3     
  36 H36           -0.9602     1.9068     0.0170 H       
  37 H37           -0.9289    -0.5516     0.0083 H       
  38 H38            1.2004    -1.7709    -0.0186 H       
  39 H39            1.1506     3.1715     0.0077 H       
  40 H40            5.6983    -0.6536    -0.0540 H       
  41 H41            4.4657    -2.5244     0.4609 H       
  42 H42            2.6861    -2.4912     0.4778 H       
  43 H43            6.3471     4.7607    -2.1648 H       
  44 H44            7.5796     6.8905    -2.1620 H       
  45 H45            8.0561     8.0378    -0.0379 H       
  46 H46            7.3009     7.0609     2.0909 H       
  47 H47            5.6875    -2.7219    -1.6174 H       
  48 H48            5.6855    -3.5293    -3.9347 H       
  49 H49            1.4336    -2.6477    -1.5708 H       
  50 H50            3.8637    -4.2352    -6.0384 H       
  51 H51            1.1288    -3.6306    -7.4777 H       
  52 H52            1.5472    -5.3350    -7.1606 H       
  53 H53           -0.9557    -4.8487    -7.2414 H       
  54 H54           -0.3940    -5.6238    -5.7410 H       
  55 H55           -0.6954    -2.6072    -6.0583 H       
  56 H56           -1.9744    -3.6560    -5.3988 H       
  57 H57           -0.5590    -4.3534    -3.5593 H       
  58 H58           -0.4524    -2.5752    -3.6501 H       
@<TRIPOS>BOND
   1    1    2 ar
   2    1    6 ar
   3    1   36 1
   4    2    3 ar
   5    2   37 1
   6    3    4 ar
   7    3   38 1
   8    4    5 ar
   9    4    7 1
  10    5    6 ar
  11    5   10 1
  12    6   39 1
  13    7    8 1
  14    7   16 1
  15    8    9 2
  16    8   40 1
  17    9   10 1
  18    9   11 1
  19   10   13 2
  20   11   12 am
  21   11   15 2
  22   12   13 1
  23   12   14 1
  24   14   17 ar
  25   14   21 ar
  26   16   23 1
  27   16   41 1
  28   16   42 1
  29   17   18 ar
  30   17   43 1
  31   18   19 ar
  32   18   44 1
  33   19   20 ar
  34   19   45 1
  35   20   21 ar
  36   20   46 1
  37   21   22 1
  38   23   24 ar
  39   23   28 ar
  40   24   25 ar
  41   24   47 1
  42   25   26 ar
  43   25   48 1
  44   26   27 ar
  45   26   29 1
  46   27   28 ar
  47   27   31 1
  48   28   49 1
  49   29   30 1
  50   29   50 1
  51   30   31 2
  52   30   32 1
  53   31   35 1
  54   32   33 1
  55   32   51 1
  56   32   52 1
  57   33   34 1
  58   33   53 1
  59   33   54 1
  60   34   35 1
  61   34   55 1
  62   34   56 1
  63   35   57 1
  64   35   58 1

#	End of record

