#	Name: ASD03330271
#	Creating user name:	WinNT
#	Creation time:	15. 06. 2019 20:36

#	Modifying user name:	WinNT
#	Modification time:	15. 06. 2019 20:36

#	Program:	/corina/corina34_cracker 3.40 0067  02.08.2006

@<TRIPOS>MOLECULE
ASD03330271
  54   56    0    0    0
SMALL
NO_CHARGES


@<TRIPOS>ATOM
   1 C1            -1.7646     1.7882    -1.3278 C.3     
   2 N2            -1.4189     0.4038    -0.9756 N.3     
   3 C3            -0.7105    -0.2657    -2.0814 C.3     
   4 C4             0.4102     0.6362    -2.5304 C.2     
   5 N5             0.4978     1.9514    -2.2005 N.pl3   
   6 C6            -0.4933     2.6456    -1.3733 C.3     
   7 C7             1.4866     0.3423    -3.3018 C.2     
   8 N8             2.2184     1.4724    -3.4327 N.2     
   9 C9             1.6285     2.4432    -2.7715 C.2     
  10 C10            2.1140     3.8369    -2.6666 C.ar    
  11 C11            3.1017     4.3018    -3.5354 C.ar    
  12 C12            1.8019    -0.9712    -3.8909 C.2     
  13 O13            1.0614    -1.9169    -3.6998 O.2     
  14 C14            3.2243    -2.4302    -5.2270 C.3     
  15 N15            2.9108    -1.1244    -4.6413 N.am    
  16 C16            3.5499     5.6027    -3.4328 C.ar    
  17 C17            3.0220     6.4454    -2.4709 C.ar    
  18 C18            2.0424     5.9904    -1.6065 C.ar    
  19 C19            1.5820     4.6932    -1.7023 C.ar    
  20 C20            2.4814    -2.5849    -6.5555 C.3     
  21 C21            2.7919    -1.3874    -7.4559 C.3     
  22 C22            2.9340    -3.8730    -7.2460 C.3     
  23 C23            0.9754    -2.6488    -6.2933 C.3     
  24 C24           -2.6144    -0.3533    -0.5812 C.3     
  25 C25            4.7314    -2.5313    -5.4706 C.3     
  26 O26            5.1308    -1.5288    -6.4073 O.3     
  27 H27           -2.2473     1.8037    -2.3050 H       
  28 H28           -2.4478     2.1924    -0.5808 H       
  29 H29           -0.3030    -1.2159    -1.7361 H       
  30 H30           -1.3987    -0.4381    -2.9089 H       
  31 H31           -0.7209     3.6178    -1.8103 H       
  32 H32           -0.1025     2.7776    -0.3644 H       
  33 H33            3.5148     3.6448    -4.2864 H       
  34 H34            2.9131    -3.2195    -4.5426 H       
  35 H35            3.5014    -0.3702    -4.7937 H       
  36 H36            4.3146     5.9638    -4.1045 H       
  37 H37            3.3763     7.4628    -2.3944 H       
  38 H38            1.6342     6.6531    -0.8578 H       
  39 H39            0.8172     4.3391    -1.0269 H       
  40 H40            3.8253    -1.4480    -7.7974 H       
  41 H41            2.1236    -1.3972    -8.3169 H       
  42 H42            2.6482    -0.4640    -6.8948 H       
  43 H43            2.7128    -4.7261    -6.6045 H       
  44 H44            2.4047    -3.9832    -8.1924 H       
  45 H45            4.0069    -3.8275    -7.4328 H       
  46 H46            0.6530    -1.7311    -5.8014 H       
  47 H47            0.4462    -2.7590    -7.2398 H       
  48 H48            0.7542    -3.5018    -5.6519 H       
  49 H49           -3.3521    -0.3108    -1.3825 H       
  50 H50           -2.3413    -1.3917    -0.3935 H       
  51 H51           -3.0369     0.0808     0.3250 H       
  52 H52            5.2622    -2.3822    -4.5303 H       
  53 H53            4.9695    -3.5172    -5.8699 H       
  54 H54            6.0764    -1.5339    -6.6096 H       
@<TRIPOS>BOND
   1    1    2 1
   2    1    6 1
   3    1   27 1
   4    1   28 1
   5    2    3 1
   6    2   24 1
   7    3    4 1
   8    3   29 1
   9    3   30 1
  10    4    5 1
  11    4    7 2
  12    5    6 1
  13    5    9 1
  14    6   31 1
  15    6   32 1
  16    7    8 1
  17    7   12 1
  18    8    9 2
  19    9   10 1
  20   10   11 ar
  21   10   19 ar
  22   11   16 ar
  23   11   33 1
  24   12   13 2
  25   12   15 am
  26   14   15 1
  27   14   25 1
  28   14   20 1
  29   14   34 1
  30   15   35 1
  31   16   17 ar
  32   16   36 1
  33   17   18 ar
  34   17   37 1
  35   18   19 ar
  36   18   38 1
  37   19   39 1
  38   20   21 1
  39   20   22 1
  40   20   23 1
  41   21   40 1
  42   21   41 1
  43   21   42 1
  44   22   43 1
  45   22   44 1
  46   22   45 1
  47   23   46 1
  48   23   47 1
  49   23   48 1
  50   24   49 1
  51   24   50 1
  52   24   51 1
  53   25   26 1
  54   25   52 1
  55   25   53 1
  56   26   54 1

#	End of record

