#	Name: ASD03740129
#	Creating user name:	WinNT
#	Creation time:	15. 06. 2019 20:46

#	Modifying user name:	WinNT
#	Modification time:	15. 06. 2019 20:46

#	Program:	/corina/corina34_cracker 3.40 0067  02.08.2006

@<TRIPOS>MOLECULE
ASD03740129
  31   33    0    0    0
SMALL
NO_CHARGES


@<TRIPOS>ATOM
   1 C1            -0.0169     1.3933     0.0097 C.ar    
   2 C2             0.0021    -0.0041     0.0020 C.ar    
   3 C3            -1.1406    -0.7345     0.0095 C.ar    
   4 C4            -2.3891    -0.0762     0.0254 C.ar    
   5 C5            -2.4089     1.3949     0.0335 C.ar    
   6 C6            -1.1810     2.0908     0.0302 C.ar    
   7 N7            -3.6484    -0.4741     0.0358 N.2     
   8 N8            -4.4807     0.6510     0.0501 N.pl3   
   9 C9            -3.7400     1.7677     0.0487 C.2     
  10 Br10           1.6219     2.3367    -0.0009 Br      
  11 C11            1.3287    -0.7189    -0.0155 C.3     
  12 C12           -5.9452     0.6134     0.0644 C.3     
  13 C13           -6.4380    -0.2084    -1.0987 C.ar    
  14 C14           -6.6320    -1.5691    -0.9503 C.ar    
  15 C15           -7.0840    -2.3233    -2.0167 C.ar    
  16 C16           -7.3423    -1.7163    -3.2328 C.ar    
  17 C17           -7.1479    -0.3545    -3.3807 C.ar    
  18 C18           -6.7013     0.3996    -2.3120 C.ar    
  19 Cl19          -7.9094    -2.6631    -4.5728 Cl      
  20 H20           -1.0955    -1.8136     0.0029 H       
  21 H21           -1.1680     3.1707     0.0363 H       
  22 H22           -4.1164     2.7800     0.0582 H       
  23 H23            1.6591    -0.8967     1.0079 H       
  24 H24            1.2210    -1.6719    -0.5334 H       
  25 H25            2.0653    -0.1050    -0.5337 H       
  26 H26           -6.2880     0.1653     0.9970 H       
  27 H27           -6.3355     1.6279    -0.0163 H       
  28 H28           -6.4301    -2.0429    -0.0010 H       
  29 H29           -7.2352    -3.3864    -1.9007 H       
  30 H30           -7.3493     0.1199    -4.3298 H       
  31 H31           -6.5495     1.4627    -2.4273 H       
@<TRIPOS>BOND
   1    1    2 ar
   2    1   10 1
   3    1    6 ar
   4    2    3 ar
   5    2   11 1
   6    3    4 ar
   7    3   20 1
   8    4    5 ar
   9    4    7 2
  10    5    6 ar
  11    5    9 2
  12    6   21 1
  13    7    8 1
  14    8    9 1
  15    8   12 1
  16    9   22 1
  17   11   23 1
  18   11   24 1
  19   11   25 1
  20   12   13 1
  21   12   26 1
  22   12   27 1
  23   13   14 ar
  24   13   18 ar
  25   14   15 ar
  26   14   28 1
  27   15   16 ar
  28   15   29 1
  29   16   17 ar
  30   16   19 1
  31   17   18 ar
  32   17   30 1
  33   18   31 1

#	End of record

