#	Name: ASD02560447
#	Creating user name:	WinNT
#	Creation time:	15. 06. 2019 20:25

#	Modifying user name:	WinNT
#	Modification time:	15. 06. 2019 20:25

#	Program:	/corina/corina34_cracker 3.40 0067  02.08.2006

@<TRIPOS>MOLECULE
ASD02560447
  40   43    0    0    0
SMALL
NO_CHARGES


@<TRIPOS>ATOM
   1 C1            -0.0050     1.4165     0.0632 C.2     
   2 C2             0.0087     0.0119    -0.0049 C.2     
   3 C3             1.1784    -0.6577    -0.0248 C.2     
   4 N4             2.3687     0.0173     0.0206 N.pl3   
   5 C5             2.3867     1.3918     0.0872 C.2     
   6 C6             1.1677     2.1024     0.1089 C.2     
   7 C7             3.6686    -0.4068     0.0140 C.2     
   8 C8             4.4573     0.7227     0.0770 C.2     
   9 N9             3.6460     1.7955     0.1201 N.2     
  10 C10            5.9387     0.7502     0.0937 C.ar    
  11 N11            4.1119    -1.7285    -0.0447 N.3     
  12 C12            2.9884    -2.6666     0.0811 C.3     
  13 C13            2.3639    -2.9536    -1.3069 C.3     
  14 C14            6.6266     1.7836    -0.5418 C.ar    
  15 C15            8.0060     1.8046    -0.5227 C.ar    
  16 C16            8.7073     0.8020     0.1254 C.ar    
  17 C17            8.0293    -0.2263     0.7579 C.ar    
  18 C18            6.6499    -0.2540     0.7500 C.ar    
  19 C19            3.4870    -4.0444     0.5638 C.3     
  20 C20            2.6546    -5.1000    -0.1848 C.3     
  21 C21            1.6793    -4.3270    -1.0963 C.3     
  22 Cl22          10.4429     0.8340     0.1446 Cl      
  23 H23           -0.9446     1.9490     0.0748 H       
  24 H24           -0.9229    -0.5333    -0.0412 H       
  25 H25            1.1767    -1.7365    -0.0765 H       
  26 H26            1.1665     3.1811     0.1607 H       
  27 H27            4.6315    -1.8983    -0.8927 H       
  28 H28            2.2375    -2.2715     0.7652 H       
  29 H29            1.6289    -2.1912    -1.5650 H       
  30 H30            3.1373    -3.0208    -2.0721 H       
  31 H31            6.0806     2.5658    -1.0482 H       
  32 H32            8.5398     2.6043    -1.0145 H       
  33 H33            8.5812    -1.0059     1.2620 H       
  34 H34            6.1221    -1.0564     1.2439 H       
  35 H35            4.5437    -4.1638     0.3248 H       
  36 H36            3.3336    -4.1413     1.6386 H       
  37 H37            3.3074    -5.7318    -0.7871 H       
  38 H38            2.0973    -5.7094     0.5267 H       
  39 H39            0.7152    -4.2011    -0.6036 H       
  40 H40            1.5575    -4.8426    -2.0489 H       
@<TRIPOS>BOND
   1    1    2 1
   2    1    6 2
   3    1   23 1
   4    2    3 2
   5    2   24 1
   6    3    4 1
   7    3   25 1
   8    4    5 1
   9    4    7 1
  10    5    6 1
  11    5    9 2
  12    6   26 1
  13    7    8 2
  14    7   11 1
  15    8    9 1
  16    8   10 1
  17   10   14 ar
  18   10   18 ar
  19   11   12 1
  20   11   27 1
  21   12   19 1
  22   12   13 1
  23   12   28 1
  24   13   21 1
  25   13   29 1
  26   13   30 1
  27   14   15 ar
  28   14   31 1
  29   15   16 ar
  30   15   32 1
  31   16   17 ar
  32   16   22 1
  33   17   18 ar
  34   17   33 1
  35   18   34 1
  36   19   20 1
  37   19   35 1
  38   19   36 1
  39   20   21 1
  40   20   37 1
  41   20   38 1
  42   21   39 1
  43   21   40 1

#	End of record

