#	Name: ASD01810278
#	Creating user name:	WinNT
#	Creation time:	15. 06. 2019 19:24

#	Modifying user name:	WinNT
#	Modification time:	15. 06. 2019 19:24

#	Program:	/corina/corina34_cracker 3.40 0067  02.08.2006

@<TRIPOS>MOLECULE
ASD01810278
  46   50    0    0    0
SMALL
NO_CHARGES


@<TRIPOS>ATOM
   1 C1            -0.0167     1.3795     0.0096 C.ar    
   2 C2             0.0021    -0.0041     0.0020 C.ar    
   3 C3             1.1735     2.0839     0.0020 C.ar    
   4 C4             2.3794     1.4145    -0.0129 C.ar    
   5 C5             2.4069     0.0215    -0.0202 C.ar    
   6 C6             1.2040    -0.6757    -0.0131 C.ar    
   7 N7             3.4812    -0.8698    -0.0335 N.am    
   8 C8             3.0771    -2.1528    -0.0376 C.2     
   9 C9             1.5678    -2.1381    -0.0264 C.3     
  10 O10            3.7896    -3.1343    -0.0488 O.2     
  11 C11            4.8864    -0.4556    -0.0424 C.3     
  12 C12            5.3795    -0.3211     1.3752 C.ar    
  13 C13            6.2120    -1.2869     1.9098 C.ar    
  14 C14            5.0018     0.7730     2.1370 C.ar    
  15 C15            5.4524     0.9001     3.4376 C.ar    
  16 C16            6.2869    -0.0740     3.9806 C.ar    
  17 C17            6.6671    -1.1687     3.2078 C.ar    
  18 F18            4.1926     1.7166     1.6078 F       
  19 C19            6.7745     0.0573     5.3769 C.2     
  20 C20            6.4770     1.1074     6.2671 C.2     
  21 N21            7.0891     0.8678     7.3965 N.2     
  22 N22            7.7958    -0.3345     7.2731 N.pl3   
  23 C23            7.5876    -0.8203     6.0327 C.2     
  24 O24            1.0635    -2.8000     1.1348 O.3     
  25 O25            1.0512    -2.7768    -1.2002 O.3     
  26 C26            0.7238    -4.1218    -0.7718 C.3     
  27 C27            0.2241    -3.8805     0.6750 C.3     
  28 C28            8.6150    -0.9601     8.3142 C.3     
  29 H29           -0.9585     1.9081     0.0170 H       
  30 H30           -0.9257    -0.5570     0.0083 H       
  31 H31            1.1586     3.1638     0.0075 H       
  32 H32            3.3046     1.9715    -0.0192 H       
  33 H33            5.4824    -1.2038    -0.5650 H       
  34 H34            4.9792     0.5035    -0.5519 H       
  35 H35            6.5065    -2.1359     1.3107 H       
  36 H36            5.1583     1.7530     4.0313 H       
  37 H37            7.3137    -1.9264     3.6251 H       
  38 H38            5.8521     1.9619     6.0535 H       
  39 H39            7.9965    -1.7347     5.6290 H       
  40 H40           -0.0659    -4.5470    -1.3913 H       
  41 H41            1.6080    -4.7592    -0.7778 H       
  42 H42            0.3720    -4.7702     1.2870 H       
  43 H43           -0.8240    -3.5811     0.6756 H       
  44 H44            7.9963    -1.6331     8.9079 H       
  45 H45            9.4237    -1.5245     7.8500 H       
  46 H46            9.0344    -0.1881     8.9593 H       
@<TRIPOS>BOND
   1    1    2 ar
   2    1    3 ar
   3    1   29 1
   4    2    6 ar
   5    2   30 1
   6    3    4 ar
   7    3   31 1
   8    4    5 ar
   9    4   32 1
  10    5    6 ar
  11    5    7 1
  12    6    9 1
  13    7    8 am
  14    7   11 1
  15    8    9 1
  16    8   10 2
  17    9   24 1
  18    9   25 1
  19   11   12 1
  20   11   33 1
  21   11   34 1
  22   12   13 ar
  23   12   14 ar
  24   13   17 ar
  25   13   35 1
  26   14   15 ar
  27   14   18 1
  28   15   16 ar
  29   15   36 1
  30   16   17 ar
  31   16   19 1
  32   17   37 1
  33   19   20 1
  34   19   23 2
  35   20   21 2
  36   20   38 1
  37   21   22 1
  38   22   23 1
  39   22   28 1
  40   23   39 1
  41   24   27 1
  42   25   26 1
  43   26   27 1
  44   26   40 1
  45   26   41 1
  46   27   42 1
  47   27   43 1
  48   28   44 1
  49   28   45 1
  50   28   46 1

#	End of record

