#	Name: ASD02500291
#	Creating user name:	WinNT
#	Creation time:	15. 06. 2019 20:22

#	Modifying user name:	WinNT
#	Modification time:	15. 06. 2019 20:22

#	Program:	/corina/corina34_cracker 3.40 0067  02.08.2006

@<TRIPOS>MOLECULE
ASD02500291
  58   62    0    0    0
SMALL
NO_CHARGES


@<TRIPOS>ATOM
   1 N1            -5.7647     4.4921     1.1720 N.ar    
   2 C2            -7.0205     4.8575     1.0839 C.ar    
   3 C3            -7.9996     4.3245     1.9197 C.ar    
   4 C4            -7.6601     3.3952     2.8612 C.ar    
   5 C5            -6.3106     3.0049     2.9527 C.ar    
   6 C6            -5.8864     2.0555     3.8959 C.ar    
   7 C7            -4.5719     1.7047     3.9532 C.ar    
   8 C8            -3.6412     2.2759     3.0880 C.ar    
   9 C9            -4.0178     3.1992     2.1616 C.ar    
  10 C10           -5.3657     3.5873     2.0716 C.ar    
  11 S11           -2.8198     3.9062     1.0801 S.o2    
  12 O12           -2.9966     5.3144     1.1512 O.2     
  13 O13           -1.5871     3.2620     1.3707 O.2     
  14 N14           -3.2281     3.4610    -0.4618 N.am    
  15 C15           -3.1601     2.1248    -0.8406 C.ar    
  16 C16           -2.7581     1.7880    -2.1305 C.ar    
  17 C17           -2.6897     0.4668    -2.5084 C.ar    
  18 C18           -3.0244    -0.5380    -1.5957 C.ar    
  19 C19           -3.4276    -0.1967    -0.3016 C.ar    
  20 C20           -3.4885     1.1265     0.0721 C.ar    
  21 C21           -2.3979     2.8718    -3.1138 C.3     
  22 F22           -2.0287     2.2920    -4.3323 F       
  23 F23           -3.5019     3.7082    -3.3109 F       
  24 F24           -1.3289     3.6212    -2.6110 F       
  25 C25           -2.9527    -1.9555    -1.9978 C.2     
  26 O26           -3.3599    -2.2988    -3.0909 O.2     
  27 N27           -2.4359    -2.8702    -1.1535 N.am    
  28 C28           -2.2654    -4.2671    -1.5771 C.3     
  29 C29           -0.7990    -4.6663    -1.3708 C.3     
  30 N30           -0.3953    -4.2844    -0.0102 N.am    
  31 C31           -0.5658    -2.8876     0.4134 C.3     
  32 C32           -2.0270    -2.4872     0.2052 C.3     
  33 C33            0.1215    -5.1991     0.8340 C.2     
  34 O34            0.1423    -6.3736     0.5196 O.2     
  35 S35            1.5956    -4.6156     4.4017 S.3     
  36 N36            1.2958    -3.2702     3.6626 N.2     
  37 N37            0.8178    -3.5085     2.5058 N.2     
  38 C38            0.6618    -4.7756     2.1390 C.2     
  39 C39            1.0670    -5.6468     3.1293 C.2     
  40 H40           -7.3036     5.5915     0.3440 H       
  41 H41           -9.0261     4.6461     1.8233 H       
  42 H42           -8.4060     2.9719     3.5175 H       
  43 H43           -6.5984     1.6063     4.5724 H       
  44 H44           -4.2464     0.9742     4.6791 H       
  45 H45           -2.6042     1.9815     3.1536 H       
  46 H46           -3.5147     4.1322    -1.1007 H       
  47 H47           -2.3782     0.2062    -3.5091 H       
  48 H48           -3.6868    -0.9706     0.4057 H       
  49 H49           -3.7954     1.3908     1.0733 H       
  50 H50           -2.9079    -4.9121    -0.9778 H       
  51 H51           -2.5261    -4.3642    -2.6310 H       
  52 H52           -0.6922    -5.7439    -1.4952 H       
  53 H53           -0.1730    -4.1479    -2.0971 H       
  54 H54           -0.3051    -2.7905     1.4673 H       
  55 H55            0.0767    -2.2425    -0.1859 H       
  56 H56           -2.1304    -1.4090     0.3280 H       
  57 H57           -2.6522    -3.0026     0.9343 H       
  58 H58            1.0554    -6.7266     3.1102 H       
@<TRIPOS>BOND
   1    1    2 ar
   2    1   10 ar
   3    2    3 ar
   4    2   40 1
   5    3    4 ar
   6    3   41 1
   7    4    5 ar
   8    4   42 1
   9    5    6 ar
  10    5   10 ar
  11    6    7 ar
  12    6   43 1
  13    7    8 ar
  14    7   44 1
  15    8    9 ar
  16    8   45 1
  17    9   10 ar
  18    9   11 1
  19   11   12 2
  20   11   13 2
  21   11   14 am
  22   14   15 1
  23   14   46 1
  24   15   16 ar
  25   15   20 ar
  26   16   17 ar
  27   16   21 1
  28   17   18 ar
  29   17   47 1
  30   18   19 ar
  31   18   25 1
  32   19   20 ar
  33   19   48 1
  34   20   49 1
  35   21   22 1
  36   21   23 1
  37   21   24 1
  38   25   26 2
  39   25   27 am
  40   27   28 1
  41   27   32 1
  42   28   29 1
  43   28   50 1
  44   28   51 1
  45   29   30 1
  46   29   52 1
  47   29   53 1
  48   30   31 1
  49   30   33 am
  50   31   32 1
  51   31   54 1
  52   31   55 1
  53   32   56 1
  54   32   57 1
  55   33   34 2
  56   33   38 1
  57   35   36 1
  58   35   39 1
  59   36   37 2
  60   37   38 1
  61   38   39 2
  62   39   58 1

#	End of record

