#	Name: ASD04882394
#	Creating user name:	WinNT
#	Creation time:	15. 06. 2019 20:54

#	Modifying user name:	WinNT
#	Modification time:	15. 06. 2019 20:54

#	Program:	/corina/corina34_cracker 3.40 0067  02.08.2006

@<TRIPOS>MOLECULE
ASD04882394
  75   79    0    0    0
SMALL
NO_CHARGES


@<TRIPOS>ATOM
   1 C1             0.0028     1.3920     0.0501 C.ar    
   2 C2             0.0139     0.0024     0.0315 C.ar    
   3 C3             1.2289    -0.6885    -0.0019 C.ar    
   4 C4             2.4201     0.0116    -0.0169 C.ar    
   5 C5             2.4061     1.4094     0.0014 C.ar    
   6 C6             1.1883     2.0937     0.0353 C.ar    
   7 N7            -1.1867    -0.7028     0.0467 N.3     
   8 C8            -1.9638    -0.3937     1.2551 C.3     
   9 C9            -1.9725    -0.4310    -1.1651 C.3     
  10 C10           -3.2436    -1.2832    -1.1474 C.3     
  11 N11           -4.0207    -0.9741     0.0610 N.3     
  12 C12           -3.2350    -1.2459     1.2728 C.3     
  13 C13            3.6755     2.1611    -0.0141 C.2     
  14 O14            4.7348     1.5648    -0.0427 O.2     
  15 C15           -5.2250    -1.6814     0.0762 C.ar    
  16 C16           -5.2168    -3.0702     0.0577 C.ar    
  17 C17           -6.4337    -0.9975     0.1156 C.ar    
  18 C18           -7.6224    -1.6999     0.1305 C.ar    
  19 C19           -7.6108    -3.0827     0.1067 C.ar    
  20 C20           -6.4096    -3.7665     0.0728 C.ar    
  21 N21            3.6609     3.5087     0.0036 N.am    
  22 C22           -6.4473     0.5092     0.1426 C.3     
  23 N23            1.2386    -2.0892    -0.0196 N.am    
  24 C24            2.1969    -2.7479    -0.7011 C.2     
  25 C25            2.2815    -4.2095    -0.6195 C.2     
  26 C26            3.1981    -4.9970    -1.2554 C.2     
  27 C27            2.9097    -6.3228    -0.8957 C.2     
  28 C28            1.8433    -6.2870    -0.0666 C.2     
  29 O29            1.4709    -5.0114     0.1017 O.3     
  30 O30            2.9921    -2.1295    -1.3842 O.2     
  31 C31            4.9214     4.2551    -0.0118 C.3     
  32 C32            4.6257     5.7560     0.0134 C.3     
  33 N33            5.8896     6.5045    -0.0020 N.3     
  34 C34            5.6442     7.9526     0.0215 C.3     
  35 C35            5.5880     8.4693     1.4806 C.3     
  36 C36            6.8330     8.7119    -0.6031 C.3     
  37 C37            7.0198     9.9947     0.2259 C.3     
  38 C38            5.9380     9.9701     1.3255 C.3     
  39 H39           -0.9373     1.9231     0.0717 H       
  40 H40            3.3599    -0.5200    -0.0424 H       
  41 H41            1.1763     3.1735     0.0490 H       
  42 H42           -1.3653    -0.6150     2.1388 H       
  43 H43           -2.2339     0.6623     1.2536 H       
  44 H44           -2.2427     0.6246    -1.1941 H       
  45 H45           -1.3803    -0.6794    -2.0458 H       
  46 H46           -3.8421    -1.0618    -2.0311 H       
  47 H47           -2.9735    -2.3392    -1.1459 H       
  48 H48           -2.9648    -2.3015     1.3018 H       
  49 H49           -3.8272    -0.9974     2.1535 H       
  50 H50           -4.2789    -3.6050     0.0312 H       
  51 H51           -8.5624    -1.1688     0.1611 H       
  52 H52           -8.5420    -3.6296     0.1191 H       
  53 H53           -6.4040    -4.8464     0.0542 H       
  54 H54            2.8159     3.9843     0.0264 H       
  55 H55           -6.4738     0.8906    -0.8782 H       
  56 H56           -7.3287     0.8550     0.6826 H       
  57 H57           -5.5493     0.8718     0.6427 H       
  58 H58            0.5557    -2.5851     0.4585 H       
  59 H59            3.9911    -4.6642    -1.9087 H       
  60 H60            3.4402    -7.2056    -1.2209 H       
  61 H61            1.3716    -7.1452     0.3887 H       
  62 H62            5.5133     3.9867     0.8633 H       
  63 H63            5.4781     4.0096    -0.9162 H       
  64 H64            4.0338     6.0244    -0.8617 H       
  65 H65            4.0691     6.0015     0.9178 H       
  66 H66            6.4841     6.2260     0.7642 H       
  67 H67            4.7203     8.1906    -0.5055 H       
  68 H68            4.5875     8.3469     1.8955 H       
  69 H69            6.3285     7.9619     2.0989 H       
  70 H70            7.7341     8.1006    -0.5534 H       
  71 H71            6.6106     8.9662    -1.6394 H       
  72 H72            8.0115    10.0059     0.6781 H       
  73 H73            6.8880    10.8715    -0.4080 H       
  74 H74            5.0611    10.5358     1.0106 H       
  75 H75            6.3345    10.3680     2.2596 H       
@<TRIPOS>BOND
   1    1    2 ar
   2    1    6 ar
   3    1   39 1
   4    2    3 ar
   5    2    7 1
   6    3    4 ar
   7    3   23 1
   8    4    5 ar
   9    4   40 1
  10    5    6 ar
  11    5   13 1
  12    6   41 1
  13    7    8 1
  14    7    9 1
  15    8   12 1
  16    8   42 1
  17    8   43 1
  18    9   10 1
  19    9   44 1
  20    9   45 1
  21   10   11 1
  22   10   46 1
  23   10   47 1
  24   11   12 1
  25   11   15 1
  26   12   48 1
  27   12   49 1
  28   13   14 2
  29   13   21 am
  30   15   16 ar
  31   15   17 ar
  32   16   20 ar
  33   16   50 1
  34   17   18 ar
  35   17   22 1
  36   18   19 ar
  37   18   51 1
  38   19   20 ar
  39   19   52 1
  40   20   53 1
  41   21   31 1
  42   21   54 1
  43   22   55 1
  44   22   56 1
  45   22   57 1
  46   23   24 am
  47   23   58 1
  48   24   25 1
  49   24   30 2
  50   25   26 2
  51   25   29 1
  52   26   27 1
  53   26   59 1
  54   27   28 2
  55   27   60 1
  56   28   29 1
  57   28   61 1
  58   31   32 1
  59   31   62 1
  60   31   63 1
  61   32   33 1
  62   32   64 1
  63   32   65 1
  64   33   34 1
  65   33   66 1
  66   34   36 1
  67   34   35 1
  68   34   67 1
  69   35   38 1
  70   35   68 1
  71   35   69 1
  72   36   37 1
  73   36   70 1
  74   36   71 1
  75   37   38 1
  76   37   72 1
  77   37   73 1
  78   38   74 1
  79   38   75 1

#	End of record

