#	Name: ASD03092825
#	Creating user name:	WinNT
#	Creation time:	15. 06. 2019 20:33

#	Modifying user name:	WinNT
#	Modification time:	15. 06. 2019 20:33

#	Program:	/corina/corina34_cracker 3.40 0067  02.08.2006

@<TRIPOS>MOLECULE
ASD03092825
  48   50    0    0    0
SMALL
NO_CHARGES


@<TRIPOS>ATOM
   1 C1             0.2101     1.6721    -0.3021 C.3     
   2 C2             0.7083     0.2300    -0.1886 C.3     
   3 C3             0.3298    -0.5316    -1.4327 C.2     
   4 O4            -0.2791     0.0249    -2.3234 O.2     
   5 C5             0.6850    -1.8984    -1.5630 C.2     
   6 N6             1.3333    -2.5988    -0.6688 N.2     
   7 C7             1.5801    -3.8440    -0.9460 C.2     
   8 C8             2.3183    -4.7512     0.0043 C.3     
   9 C9             1.1201    -4.2748    -2.1657 C.2     
  10 S10            0.3148    -2.9176    -2.9510 S.3     
  11 C11            1.2689    -5.6358    -2.7195 C.ar    
  12 C12            0.9610    -6.7487    -1.9324 C.ar    
  13 C13            1.0990    -8.0204    -2.4468 C.ar    
  14 C14            1.5436    -8.2027    -3.7481 C.ar    
  15 O15            1.6776    -9.4574    -4.2495 O.3     
  16 C16            1.3430   -10.5421    -3.3814 C.3     
  17 C17            1.8537    -7.0944    -4.5450 C.ar    
  18 C18            1.7115    -5.8115    -4.0307 C.ar    
  19 C19            2.3288    -7.2890    -5.9368 C.ar    
  20 C20            3.3665    -8.1801    -6.2035 C.ar    
  21 C21            3.8041    -8.3575    -7.5003 C.ar    
  22 C22            3.2149    -7.6525    -8.5343 C.ar    
  23 C23            2.1849    -6.7663    -8.2754 C.ar    
  24 C24            1.7351    -6.5856    -6.9832 C.ar    
  25 S25            3.7792    -7.8836   -10.1875 S.o2    
  26 N26            2.8849    -9.1135   -10.8432 N.am    
  27 O27            3.4257    -6.7063   -10.9004 O.2     
  28 O28            5.1132    -8.3639   -10.0927 O.2     
  29 H29            0.6657     2.1466    -1.1713 H       
  30 H30           -0.8742     1.6742    -0.4136 H       
  31 H31            0.4839     2.2230     0.5978 H       
  32 H32            1.7926     0.2279    -0.0771 H       
  33 H33            0.2528    -0.2445     0.6805 H       
  34 H34            1.6004    -5.3139     0.6011 H       
  35 H35            2.9404    -5.4432    -0.5634 H       
  36 H36            2.9481    -4.1528     0.6626 H       
  37 H37            0.6145    -6.6123    -0.9186 H       
  38 H38            0.8605    -8.8774    -1.8345 H       
  39 H39            1.4944   -11.4862    -3.9047 H       
  40 H40            1.9805   -10.5102    -2.4978 H       
  41 H41            0.2991   -10.4572    -3.0796 H       
  42 H42            1.9459    -4.9533    -4.6429 H       
  43 H43            3.8276    -8.7305    -5.3968 H       
  44 H44            4.6082    -9.0478    -7.7081 H       
  45 H45            1.7287    -6.2182    -9.0865 H       
  46 H46            0.9278    -5.8968    -6.7827 H       
  47 H47            2.2008    -9.5517   -10.3132 H       
  48 H48            3.0452    -9.3958   -11.7573 H       
@<TRIPOS>BOND
   1    1    2 1
   2    1   29 1
   3    1   30 1
   4    1   31 1
   5    2    3 1
   6    2   32 1
   7    2   33 1
   8    3    4 2
   9    3    5 1
  10    5   10 1
  11    5    6 2
  12    6    7 1
  13    7    8 1
  14    7    9 2
  15    8   34 1
  16    8   35 1
  17    8   36 1
  18    9   10 1
  19    9   11 1
  20   11   18 ar
  21   11   12 ar
  22   12   13 ar
  23   12   37 1
  24   13   14 ar
  25   13   38 1
  26   14   15 1
  27   14   17 ar
  28   15   16 1
  29   16   39 1
  30   16   40 1
  31   16   41 1
  32   17   18 ar
  33   17   19 1
  34   18   42 1
  35   19   24 ar
  36   19   20 ar
  37   20   21 ar
  38   20   43 1
  39   21   22 ar
  40   21   44 1
  41   22   23 ar
  42   22   25 1
  43   23   24 ar
  44   23   45 1
  45   24   46 1
  46   25   26 am
  47   25   27 2
  48   25   28 2
  49   26   47 1
  50   26   48 1

#	End of record

