#	Name: ASD03091647
#	Creating user name:	WinNT
#	Creation time:	15. 06. 2019 20:31

#	Modifying user name:	WinNT
#	Modification time:	15. 06. 2019 20:31

#	Program:	/corina/corina34_cracker 3.40 0067  02.08.2006

@<TRIPOS>MOLECULE
ASD03091647
  40   42    0    0    0
SMALL
NO_CHARGES


@<TRIPOS>ATOM
   1 Cl1            0.0000     0.0000     0.0000 Cl      
   2 H2             0.0000     1.3700     0.0000 H       
   3 C3            14.5210    10.3569     6.5709 C.ar    
   4 C4            14.5400     8.9569     6.5632 C.ar    
   5 C5            15.7626     8.2771     6.5479 C.ar    
   6 C6            16.9435     8.9794     6.5404 C.ar    
   7 C7            16.9300    10.3690     6.5480 C.ar    
   8 C8            15.7544    11.0512     6.5629 C.ar    
   9 S9            12.8902     8.3444     6.5763 S.3     
  10 C10           12.2325     9.9711     6.5915 C.2     
  11 C11           13.2162    10.8786     6.5919 C.2     
  12 C12           10.7999    10.2925     6.6068 C.2     
  13 O13           10.4370    11.4538     6.6162 O.2     
  14 N14            9.8869     9.3012     6.6103 N.am    
  15 N15            6.9505     8.8760     8.4055 N.3     
  16 C16            7.9979     9.8494     8.0684 C.3     
  17 C17            8.4575     9.6218     6.6254 C.3     
  18 C18            7.6621     8.4527     6.0312 C.3     
  19 C19            6.1687     8.7988     6.0864 C.3     
  20 C20            5.7725     9.0485     7.5443 C.3     
  21 C21            7.4627     7.5009     8.3268 C.3     
  22 C22            7.9076     7.2066     6.8914 C.3     
  23 Cl23          12.9013    12.5857     6.6054 Cl      
  24 H24           15.7783     7.1972     6.5423 H       
  25 H25           17.8848     8.4501     6.5289 H       
  26 H26           17.8632    10.9125     6.5423 H       
  27 H27           15.7615    12.1312     6.5682 H       
  28 H28           10.1762     8.3753     6.6027 H       
  29 H29            7.6012    10.8597     8.1687 H       
  30 H30            8.8438     9.7219     8.7439 H       
  31 H31            8.2769    10.5223     6.0383 H       
  32 H32            7.9682     8.2768     5.0000 H       
  33 H33            5.9799     9.6965     5.4977 H       
  34 H34            5.5864     7.9685     5.6868 H       
  35 H35            5.0000     8.3378     7.8381 H       
  36 H36            5.3913    10.0643     7.6487 H       
  37 H37            8.3121     7.3900     9.0008 H       
  38 H38            6.6763     6.8030     8.6141 H       
  39 H39            7.3323     6.3700     6.4950 H       
  40 H40            8.9692     6.9595     6.8816 H       
@<TRIPOS>BOND
   1    1    2 1
   2    3    4 ar
   3    3    8 ar
   4    3   11 1
   5    4    5 ar
   6    4    9 1
   7    5    6 ar
   8    5   24 1
   9    6    7 ar
  10    6   25 1
  11    7    8 ar
  12    7   26 1
  13    8   27 1
  14    9   10 1
  15   10   11 2
  16   10   12 1
  17   11   23 1
  18   12   13 2
  19   12   14 am
  20   14   17 1
  21   14   28 1
  22   15   16 1
  23   15   20 1
  24   15   21 1
  25   16   17 1
  26   16   29 1
  27   16   30 1
  28   17   18 1
  29   17   31 1
  30   18   19 1
  31   18   22 1
  32   18   32 1
  33   19   20 1
  34   19   33 1
  35   19   34 1
  36   20   35 1
  37   20   36 1
  38   21   22 1
  39   21   37 1
  40   21   38 1
  41   22   39 1
  42   22   40 1

#	End of record

