#	Name: ASD00311233
#	Creating user name:	WinNT
#	Creation time:	15. 06. 2019 18:34

#	Modifying user name:	WinNT
#	Modification time:	15. 06. 2019 18:34

#	Program:	/corina/corina34_cracker 3.40 0067  02.08.2006

@<TRIPOS>MOLECULE
ASD00311233
  35   38    0    0    0
SMALL
NO_CHARGES


@<TRIPOS>ATOM
   1 C1            -0.0167     1.3778     0.0096 C.2     
   2 C2             0.0021    -0.0041     0.0020 C.2     
   3 C3             1.2589    -0.6766    -0.0144 C.2     
   4 C4             2.4315     0.0673    -0.0223 C.2     
   5 C5             2.3574     1.4752    -0.0140 C.2     
   6 N6             1.1648     2.0904     0.0022 N.am    
   7 C7            -1.3431    -0.5750     0.0126 C.2     
   8 C8            -2.3224     0.3257     0.0274 C.2     
   9 S9            -1.6794     1.9560     0.0358 S.3     
  10 O10            3.3822     2.1374    -0.0204 O.2     
  11 C11            4.1341    -1.3827    -1.1352 C.ar    
  12 C12            3.7477    -0.6119    -0.0388 C.ar    
  13 C13            4.6239    -0.4907     1.0445 C.ar    
  14 C14            5.8421    -1.1448     0.9797 C.ar    
  15 C15            6.1511    -1.8901    -0.1435 C.ar    
  16 N16            5.3044    -1.9865    -1.1506 N.ar    
  17 C17           -1.5955    -2.0355     0.0073 C.ar    
  18 C18           -2.4691    -2.5981     0.9371 C.ar    
  19 C19           -2.7001    -3.9585     0.9273 C.ar    
  20 C20           -2.0669    -4.7638    -0.0024 C.ar    
  21 C21           -1.1988    -4.2113    -0.9270 C.ar    
  22 C22           -0.9647    -2.8514    -0.9310 C.ar    
  23 O23            1.3089    -2.0291    -0.0217 O.3     
  24 H24            1.1326     3.0598     0.0073 H       
  25 H25           -3.3749     0.0838     0.0367 H       
  26 H26            3.4659    -1.4889    -1.9770 H       
  27 H27            4.3570     0.0984     1.9094 H       
  28 H28            6.5439    -1.0735     1.7974 H       
  29 H29            7.1010    -2.4013    -0.1971 H       
  30 H30           -2.9637    -1.9705     1.6636 H       
  31 H31           -3.3763    -4.3955     1.6472 H       
  32 H32           -2.2508    -5.8280    -0.0063 H       
  33 H33           -0.7068    -4.8450    -1.6500 H       
  34 H34           -0.2904    -2.4205    -1.6564 H       
  35 H35            2.2062    -2.3895    -0.0327 H       
@<TRIPOS>BOND
   1    1    2 2
   2    1    6 1
   3    1    9 1
   4    2    3 1
   5    2    7 1
   6    3    4 2
   7    3   23 1
   8    4    5 1
   9    4   12 1
  10    5    6 am
  11    5   10 2
  12    6   24 1
  13    7    8 2
  14    7   17 1
  15    8    9 1
  16    8   25 1
  17   11   12 ar
  18   11   16 ar
  19   11   26 1
  20   12   13 ar
  21   13   14 ar
  22   13   27 1
  23   14   15 ar
  24   14   28 1
  25   15   16 ar
  26   15   29 1
  27   17   18 ar
  28   17   22 ar
  29   18   19 ar
  30   18   30 1
  31   19   20 ar
  32   19   31 1
  33   20   21 ar
  34   20   32 1
  35   21   22 ar
  36   21   33 1
  37   22   34 1
  38   23   35 1

#	End of record

