#	Name: ASD05233010
#	Creating user name:	WinNT
#	Creation time:	15. 06. 2019 20:57

#	Modifying user name:	WinNT
#	Modification time:	15. 06. 2019 20:57

#	Program:	/corina/corina34_cracker 3.40 0067  02.08.2006

@<TRIPOS>MOLECULE
ASD05233010
  24   25    0    0    0
SMALL
NO_CHARGES


@<TRIPOS>ATOM
   1 C1             0.0420     0.4564    -0.9403 C.2     
   2 C2            -0.0334     0.3971     0.4065 C.2     
   3 C3             1.2751     0.4774     0.9112 C.2     
   4 C4             2.1160     0.5843    -0.1555 C.2     
   5 N5             1.3540     0.5711    -1.2954 N.pl3   
   6 C6             3.5889     0.6957    -0.0946 C.ar    
   7 C7             4.2556     1.6400    -0.8834 C.ar    
   8 C8             5.6367     1.7378    -0.8196 C.ar    
   9 C9             6.3527     0.9043     0.0207 C.ar    
  10 C10            5.6962    -0.0317     0.8024 C.ar    
  11 C11            4.3204    -0.1362     0.7538 C.ar    
  12 O12            3.5514     2.4579    -1.7094 O.3     
  13 Cl13           6.4690     2.9074    -1.7959 Cl      
  14 Cl14           6.6060    -1.0725     1.8526 Cl      
  15 C15            3.0980     3.6978    -1.1625 C.3     
  16 H16           -0.7950     0.4153    -1.6217 H       
  17 H17           -0.9371     0.3046     0.9907 H       
  18 H18            1.5616     0.4583     1.9524 H       
  19 H19            1.6916     0.6328    -2.2026 H       
  20 H20            7.4288     0.9836     0.0671 H       
  21 H21            3.8117    -0.8672     1.3647 H       
  22 H22            2.3753     3.5028    -0.3702 H       
  23 H23            3.9464     4.2464    -0.7534 H       
  24 H24            2.6264     4.2900    -1.9467 H       
@<TRIPOS>BOND
   1    1    2 2
   2    1    5 1
   3    1   16 1
   4    2    3 1
   5    2   17 1
   6    3    4 2
   7    3   18 1
   8    4    5 1
   9    4    6 1
  10    5   19 1
  11    6    7 ar
  12    6   11 ar
  13    7    8 ar
  14    7   12 1
  15    8    9 ar
  16    8   13 1
  17    9   10 ar
  18    9   20 1
  19   10   11 ar
  20   10   14 1
  21   11   21 1
  22   12   15 1
  23   15   22 1
  24   15   23 1
  25   15   24 1

#	End of record

