#	Name: ASD01914805
#	Creating user name:	WinNT
#	Creation time:	15. 06. 2019 20:04

#	Modifying user name:	WinNT
#	Modification time:	15. 06. 2019 20:04

#	Program:	/corina/corina34_cracker 3.40 0067  02.08.2006

@<TRIPOS>MOLECULE
ASD01914805
  20   21    0    0    0
SMALL
NO_CHARGES


@<TRIPOS>ATOM
   1 C1             0.5353     0.0926     1.6701 C.ar    
   2 C2             0.1275    -0.2984     0.3965 C.ar    
   3 C3             0.9979    -0.1089    -0.6797 C.ar    
   4 C4             2.2345     0.4624    -0.4315 C.ar    
   5 C5             2.5653     0.8237     0.8615 C.ar    
   6 N6             1.7221     0.6322     1.8578 N.ar    
   7 N7            -2.8509    -2.2054    -0.4929 N.pl3   
   8 N8            -1.4746    -1.9551    -0.5641 N.2     
   9 C9            -1.2100    -0.9069     0.1865 C.2     
  10 C10           -2.4201    -0.4645     0.7554 C.2     
  11 C11           -3.4049    -1.2801     0.3199 C.2     
  12 N12           -2.5837     0.6891     1.6683 N.pl3   
  13 O13           -3.6631     0.9050     2.1895 O.2     
  14 O14           -1.6388     1.4225     1.8983 O.2     
  15 H15           -0.1294    -0.0440     2.5102 H       
  16 H16            0.7136    -0.4009    -1.6799 H       
  17 H17            2.9333     0.6237    -1.2390 H       
  18 H18            3.5291     1.2692     1.0589 H       
  19 H19           -3.3245    -2.9172    -0.9511 H       
  20 H20           -4.4512    -1.2056     0.5769 H       
@<TRIPOS>BOND
   1    1    2 ar
   2    1    6 ar
   3    1   15 1
   4    2    3 ar
   5    2    9 1
   6    3    4 ar
   7    3   16 1
   8    4    5 ar
   9    4   17 1
  10    5    6 ar
  11    5   18 1
  12    7    8 1
  13    7   11 1
  14    7   19 1
  15    8    9 2
  16    9   10 1
  17   10   11 2
  18   10   12 1
  19   11   20 1
  20   12   13 2
  21   12   14 2

#	End of record

