#	Name: ASD01916151
#	Creating user name:	WinNT
#	Creation time:	15. 06. 2019 20:06

#	Modifying user name:	WinNT
#	Modification time:	15. 06. 2019 20:06

#	Program:	/corina/corina34_cracker 3.40 0067  02.08.2006

@<TRIPOS>MOLECULE
ASD01916151
  45   48    0    0    0
SMALL
NO_CHARGES


@<TRIPOS>ATOM
   1 C1             0.0831     1.3906    -0.0630 C.ar    
   2 C2             0.0876     0.0092    -0.0622 C.ar    
   3 C3             1.2917    -0.6806    -0.0595 C.ar    
   4 C4             2.4893     0.0185    -0.0577 C.ar    
   5 C5             2.4807     1.4023    -0.0585 C.ar    
   6 C6             1.2772     2.0874    -0.0611 C.ar    
   7 O7             1.2972    -2.0396    -0.0583 O.3     
   8 C8             2.5731    -2.6831    -0.0556 C.3     
   9 C9             2.3817    -4.1779    -0.0545 C.2     
  10 C10            1.1517    -4.8480    -0.0559 C.2     
  11 N11            3.3373    -5.0742    -0.0578 N.2     
  12 N12            2.7469    -6.3409    -0.0598 N.pl3   
  13 C13            1.4046    -6.1704    -0.0536 C.2     
  14 C14            3.4276    -7.6386    -0.0763 C.3     
  15 C15            2.4526    -8.7265     0.3869 C.3     
  16 N16            1.1636    -8.5452    -0.2979 N.am    
  17 C17            0.4085    -7.3057    -0.0398 C.3     
  18 C18            0.6870    -9.4832    -1.1403 C.2     
  19 C19           -0.6686    -9.3411    -1.7150 C.ar    
  20 O20            1.3711   -10.4458    -1.4278 O.2     
  21 C21           -1.6915    -8.7724    -0.9556 C.ar    
  22 C22           -3.2109    -9.0751    -2.7969 C.ar    
  23 C23           -2.1828    -9.6393    -3.5566 C.ar    
  24 C24           -0.9222    -9.7710    -3.0196 C.ar    
  25 C25           -2.9568    -8.6393    -1.4922 C.ar    
  26 F26            3.6465     2.0850    -0.0568 F       
  27 F27           -3.9484    -8.0892    -0.7578 F       
  28 C28           -4.5224    -8.9386    -3.3553 C.1     
  29 N29           -5.5628    -8.8303    -3.7983 N.1     
  30 H30           -0.8543     1.9269    -0.0696 H       
  31 H31           -0.8459    -0.5338    -0.0632 H       
  32 H32            3.4275    -0.5163    -0.0553 H       
  33 H33            1.2714     3.1673    -0.0618 H       
  34 H34            3.1304    -2.3888    -0.9449 H       
  35 H35            3.1274    -2.3872     0.8351 H       
  36 H36            0.1752    -4.3864    -0.0585 H       
  37 H37            3.7654    -7.8596    -1.0888 H       
  38 H38            4.2853    -7.6083     0.5957 H       
  39 H39            2.8596    -9.7078     0.1431 H       
  40 H40            2.3064    -8.6495     1.4643 H       
  41 H41           -0.0748    -7.3610     0.9356 H       
  42 H42           -0.3394    -7.1569    -0.8186 H       
  43 H43           -1.4939    -8.4367     0.0517 H       
  44 H44           -2.3774    -9.9726    -4.5653 H       
  45 H45           -0.1282   -10.2070    -3.6078 H       
@<TRIPOS>BOND
   1    1    2 ar
   2    1    6 ar
   3    1   30 1
   4    2    3 ar
   5    2   31 1
   6    3    4 ar
   7    3    7 1
   8    4    5 ar
   9    4   32 1
  10    5    6 ar
  11    5   26 1
  12    6   33 1
  13    7    8 1
  14    8    9 1
  15    8   34 1
  16    8   35 1
  17    9   10 1
  18    9   11 2
  19   10   13 2
  20   10   36 1
  21   11   12 1
  22   12   13 1
  23   12   14 1
  24   13   17 1
  25   14   15 1
  26   14   37 1
  27   14   38 1
  28   15   16 1
  29   15   39 1
  30   15   40 1
  31   16   17 1
  32   16   18 am
  33   17   41 1
  34   17   42 1
  35   18   19 1
  36   18   20 2
  37   19   21 ar
  38   19   24 ar
  39   21   25 ar
  40   21   43 1
  41   22   23 ar
  42   22   28 1
  43   22   25 ar
  44   23   24 ar
  45   23   44 1
  46   24   45 1
  47   25   27 1
  48   28   29 3

#	End of record

