#	Name: ASD03080059
#	Creating user name:	WinNT
#	Creation time:	15. 06. 2019 20:26

#	Modifying user name:	WinNT
#	Modification time:	15. 06. 2019 20:26

#	Program:	/corina/corina34_cracker 3.40 0067  02.08.2006

@<TRIPOS>MOLECULE
ASD03080059
  28   30    0    0    0
SMALL
NO_CHARGES


@<TRIPOS>ATOM
   1 N1            -0.0169     1.3928     0.0097 N.pl3   
   2 C2             0.0021    -0.0041     0.0020 C.ar    
   3 C3             1.2122    -0.6811    -0.0132 C.ar    
   4 C4             1.2256    -2.0754    -0.0203 C.ar    
   5 C5             0.0206    -2.7805    -0.0121 C.ar    
   6 C6            -1.1783    -2.0977     0.0026 C.ar    
   7 C7            -1.1919    -0.7154     0.0154 C.ar    
   8 O8             3.7387    -2.2615    -0.0462 O.3     
   9 N9             4.5780    -3.1368    -0.0584 N.2     
  10 C10            4.0071    -4.3140    -0.0584 C.2     
  11 N11            2.6726    -4.1145    -0.0446 N.2     
  12 C12            2.5116    -2.8047    -0.0370 C.2     
  13 C13            3.9685    -6.8128    -0.0706 C.ar    
  14 C14            4.6996    -5.6270    -0.0716 C.ar    
  15 C15            6.0950    -5.6933    -0.0857 C.ar    
  16 C16            6.6930    -6.9421    -0.0981 C.ar    
  17 C17            5.8974    -8.0729    -0.0962 C.ar    
  18 N18            4.5817    -7.9785    -0.0831 N.ar    
  19 H19            0.8165     1.8892     0.0044 H       
  20 H20           -0.8634     1.8663     0.0163 H       
  21 H21            2.1412    -0.1303    -0.0198 H       
  22 H22            0.0270    -3.8605    -0.0176 H       
  23 H23           -2.1093    -2.6451     0.0085 H       
  24 H24           -2.1334    -0.1865     0.0314 H       
  25 H25            2.8893    -6.7761    -0.0552 H       
  26 H26            6.6922    -4.7934    -0.0872 H       
  27 H27            7.7693    -7.0318    -0.1096 H       
  28 H28            6.3604    -9.0486    -0.1058 H       
@<TRIPOS>BOND
   1    1    2 1
   2    1   19 1
   3    1   20 1
   4    2    3 ar
   5    2    7 ar
   6    3    4 ar
   7    3   21 1
   8    4    5 ar
   9    4   12 1
  10    5    6 ar
  11    5   22 1
  12    6    7 ar
  13    6   23 1
  14    7   24 1
  15    8    9 1
  16    8   12 1
  17    9   10 2
  18   10   11 1
  19   10   14 1
  20   11   12 2
  21   13   14 ar
  22   13   18 ar
  23   13   25 1
  24   14   15 ar
  25   15   16 ar
  26   15   26 1
  27   16   17 ar
  28   16   27 1
  29   17   18 ar
  30   17   28 1

#	End of record

