#	Name: ASD01912910
#	Creating user name:	WinNT
#	Creation time:	15. 06. 2019 20:00

#	Modifying user name:	WinNT
#	Modification time:	15. 06. 2019 20:00

#	Program:	/corina/corina34_cracker 3.40 0067  02.08.2006

@<TRIPOS>MOLECULE
ASD01912910
  39   42    0    0    0
SMALL
NO_CHARGES


@<TRIPOS>ATOM
   1 C1            -0.0237     1.3480     0.2225 C.2     
   2 N2             0.0027    -0.0024    -0.0136 N.pl3   
   3 C3            -1.1944    -0.6712    -0.2244 C.2     
   4 C4            -2.3551    -0.0302    -0.2014 C.2     
   5 N5            -2.4358     1.3312     0.0320 N.am    
   6 C6            -1.3098     2.0463     0.2513 C.2     
   7 C7             1.2881     1.7484     0.3949 C.2     
   8 C8             2.0462     0.5876     0.2490 C.2     
   9 N9             1.2238    -0.4061     0.0099 N.2     
  10 O10           -1.3634     3.2449     0.4583 O.2     
  11 C11           -3.6681     1.9590     0.0463 C.2     
  12 C12            3.5468     0.4912     0.3484 C.3     
  13 O13            4.0904     1.7849     0.6187 O.3     
  14 C14            5.4411     1.8738     0.7391 C.ar    
  15 C15            6.0362     3.0992     1.0014 C.ar    
  16 C16            7.4094     3.1869     1.1233 C.ar    
  17 C17            8.1907     2.0547     0.9842 C.ar    
  18 C18            7.6001     0.8323     0.7223 C.ar    
  19 C19            6.2268     0.7382     0.6056 C.ar    
  20 N20           -3.7913     3.2219    -0.4510 N.am    
  21 C21           -4.9828     3.8487    -0.4459 C.2     
  22 C22           -6.1157     3.2083     0.0731 C.2     
  23 C23           -6.0057     1.9410     0.5753 C.2     
  24 C24           -4.7645     1.3031     0.5573 C.2     
  25 O25           -5.0765     4.9801    -0.8952 O.2     
  26 H26           -1.1807    -1.7348    -0.4113 H       
  27 H27           -3.2647    -0.5875    -0.3702 H       
  28 H28            1.6482     2.7461     0.5982 H       
  29 H29            3.8145    -0.1911     1.1551 H       
  30 H30            3.9500     0.1171    -0.5927 H       
  31 H31            5.4264     3.9840     1.1098 H       
  32 H32            7.8732     4.1408     1.3272 H       
  33 H33            9.2641     2.1253     1.0799 H       
  34 H34            8.2126    -0.0506     0.6134 H       
  35 H35            5.7659    -0.2169     0.4011 H       
  36 H36           -3.0126     3.6739    -0.8120 H       
  37 H37           -7.0706     3.7129     0.0771 H       
  38 H38           -6.8719     1.4370     0.9781 H       
  39 H39           -4.6632     0.3024     0.9505 H       
@<TRIPOS>BOND
   1    1    2 1
   2    1    7 2
   3    1    6 1
   4    2    3 1
   5    2    9 1
   6    3    4 2
   7    3   26 1
   8    4    5 1
   9    4   27 1
  10    5    6 am
  11    5   11 1
  12    6   10 2
  13    7    8 1
  14    7   28 1
  15    8    9 2
  16    8   12 1
  17   11   20 1
  18   11   24 2
  19   12   13 1
  20   12   29 1
  21   12   30 1
  22   13   14 1
  23   14   15 ar
  24   14   19 ar
  25   15   16 ar
  26   15   31 1
  27   16   17 ar
  28   16   32 1
  29   17   18 ar
  30   17   33 1
  31   18   19 ar
  32   18   34 1
  33   19   35 1
  34   20   21 am
  35   20   36 1
  36   21   22 1
  37   21   25 2
  38   22   23 2
  39   22   37 1
  40   23   24 1
  41   23   38 1
  42   24   39 1

#	End of record

