#	Name: ASD02038166
#	Creating user name:	WinNT
#	Creation time:	15. 06. 2019 20:16

#	Modifying user name:	WinNT
#	Modification time:	15. 06. 2019 20:16

#	Program:	/corina/corina34_cracker 3.40 0067  02.08.2006

@<TRIPOS>MOLECULE
ASD02038166
  59   61    0    0    0
SMALL
NO_CHARGES


@<TRIPOS>ATOM
   1 C1            -0.2718     1.5838     0.0787 C.3     
   2 C2            -0.2451     0.0649     0.2649 C.3     
   3 N3             0.7456    -0.2826     1.2931 N.3     
   4 C4             0.7477    -1.7281     1.5550 C.3     
   5 C5             1.2543    -2.4701     0.3166 C.3     
   6 O6             0.3176    -2.3103    -0.7508 O.3     
   7 C7             1.4092    -3.9573     0.6409 C.3     
   8 O8             1.9916    -4.6304    -0.4771 O.3     
   9 C9             2.1987    -5.9685    -0.3525 C.ar    
  10 C10            2.7606    -6.6835    -1.4000 C.ar    
  11 C11            1.8533    -6.6170     0.8241 C.ar    
  12 C12            2.0642    -7.9758     0.9515 C.ar    
  13 C13            2.6217    -8.6929    -0.0984 C.ar    
  14 C14            2.9712    -8.0425    -1.2742 C.ar    
  15 N15            2.8365   -10.0718     0.0304 N.am    
  16 C16            2.0849     0.1849     0.9094 C.3     
  17 C17            2.0581     1.7039     0.7233 C.3     
  18 N18            1.0675     2.0514    -0.3050 N.3     
  19 C19            1.0655     3.4264    -0.5541 C.ar    
  20 C20            0.1971     3.9615    -1.4969 C.ar    
  21 C21            0.1974     5.3208    -1.7411 C.ar    
  22 C22            1.0618     6.1496    -1.0475 C.ar    
  23 C23            1.9283     5.6191    -0.1080 C.ar    
  24 C24            1.9280     4.2613     0.1447 C.ar    
  25 C25            1.9873   -10.8207     0.7616 C.2     
  26 N26            2.2468   -12.1271     0.9672 N.am    
  27 O27            0.9870   -10.3176     1.2358 O.2     
  28 Cl28           1.0594     7.8577    -1.3570 Cl      
  29 C29           -1.6282    -0.4200     0.7040 C.3     
  30 C30            3.0862    -0.1771     2.0081 C.3     
  31 H31           -0.9852     1.8418    -0.7040 H       
  32 H32           -0.5692     2.0595     1.0133 H       
  33 H33            0.0258    -0.4122    -0.6770 H       
  34 H34            1.4014    -1.9433     2.4002 H       
  35 H35           -0.2655    -2.0569     1.7864 H       
  36 H36            2.2193    -2.0610     0.0174 H       
  37 H37           -0.5357    -2.7368    -0.5924 H       
  38 H38            2.0544    -4.0740     1.5116 H       
  39 H39            0.4302    -4.3866     0.8538 H       
  40 H40            3.0330    -6.1773    -2.3143 H       
  41 H41            1.4197    -6.0590     1.6408 H       
  42 H42            1.7959    -8.4804     1.8679 H       
  43 H43            3.4048    -8.5998    -2.0913 H       
  44 H44            3.5963   -10.4873    -0.4066 H       
  45 H45            2.3822    -0.2908    -0.0252 H       
  46 H46            1.7873     2.1809     1.6652 H       
  47 H47            3.0435     2.0493     0.4105 H       
  48 H48           -0.4774     3.3151    -2.0387 H       
  49 H49           -0.4773     5.7374    -2.4743 H       
  50 H50            2.6023     6.2681     0.4313 H       
  51 H51            2.6042     3.8479     0.8783 H       
  52 H52            3.0448   -12.5285     0.5889 H       
  53 H53            1.6357   -12.6661     1.4934 H       
  54 H54           -2.3630    -0.1604    -0.0580 H       
  55 H55           -1.6088    -1.5018     0.8364 H       
  56 H56           -1.8980     0.0566     1.6464 H       
  57 H57            3.0718    -1.2546     2.1722 H       
  58 H58            4.0866     0.1307     1.7038 H       
  59 H59            2.8136     0.3346     2.9311 H       
@<TRIPOS>BOND
   1    1    2 1
   2    1   18 1
   3    1   31 1
   4    1   32 1
   5    2    3 1
   6    2   29 1
   7    2   33 1
   8    3    4 1
   9    3   16 1
  10    4    5 1
  11    4   34 1
  12    4   35 1
  13    5    6 1
  14    5    7 1
  15    5   36 1
  16    6   37 1
  17    7    8 1
  18    7   38 1
  19    7   39 1
  20    8    9 1
  21    9   10 ar
  22    9   11 ar
  23   10   14 ar
  24   10   40 1
  25   11   12 ar
  26   11   41 1
  27   12   13 ar
  28   12   42 1
  29   13   14 ar
  30   13   15 1
  31   14   43 1
  32   15   25 am
  33   15   44 1
  34   16   17 1
  35   16   30 1
  36   16   45 1
  37   17   18 1
  38   17   46 1
  39   17   47 1
  40   18   19 1
  41   19   20 ar
  42   19   24 ar
  43   20   21 ar
  44   20   48 1
  45   21   22 ar
  46   21   49 1
  47   22   23 ar
  48   22   28 1
  49   23   24 ar
  50   23   50 1
  51   24   51 1
  52   25   26 am
  53   25   27 2
  54   26   52 1
  55   26   53 1
  56   29   54 1
  57   29   55 1
  58   29   56 1
  59   30   57 1
  60   30   58 1
  61   30   59 1

#	End of record

