#	Name: ASD01916657
#	Creating user name:	WinNT
#	Creation time:	15. 06. 2019 20:07

#	Modifying user name:	WinNT
#	Modification time:	15. 06. 2019 20:07

#	Program:	/corina/corina34_cracker 3.40 0067  02.08.2006

@<TRIPOS>MOLECULE
ASD01916657
  34   34    0    0    0
SMALL
NO_CHARGES


@<TRIPOS>ATOM
   1 Si1           -0.0232     1.8587     0.0123 Si      
   2 C2             0.0021    -0.0041     0.0020 C.3     
   3 C3             1.7246     2.5036    -0.0010 C.3     
   4 C4            -0.9242     2.4759    -1.4970 C.3     
   5 C5            -0.9125     2.4715     1.5755 C.1     
   6 C6            -1.4620     2.8501     2.5414 C.1     
   7 C7            -2.1510     3.3248     3.7525 C.3     
   8 C8            -2.1718     4.8546     3.7609 C.3     
   9 C9            -2.8607     5.3293     4.9720 C.1     
  10 C10           -3.4103     5.7080     5.9379 C.1     
  11 C11           -4.0805     6.1698     7.1160 C.ar    
  12 C12           -4.2259     7.5382     7.3480 C.ar    
  13 C13           -4.8727     7.9776     8.4842 C.ar    
  14 C14           -5.3778     7.0630     9.3945 C.ar    
  15 C15           -5.2362     5.7031     9.1689 C.ar    
  16 C16           -4.5957     5.2530     8.0333 C.ar    
  17 F17           -6.0102     7.4987    10.5060 F       
  18 H18            0.5293    -0.3651     0.8851 H       
  19 H19           -1.0205    -0.3814     0.0098 H       
  20 H20            0.5123    -0.3556    -0.8948 H       
  21 H21            2.2348     2.1521    -0.8978 H       
  22 H22            1.7098     3.5935     0.0050 H       
  23 H23            2.2518     2.1425     0.8821 H       
  24 H24           -1.9468     2.0986    -1.4893 H       
  25 H25           -0.9390     3.5658    -1.4911 H       
  26 H26           -0.4140     2.1244    -2.3938 H       
  27 H27           -3.1736     2.9475     3.7602 H       
  28 H28           -1.6238     2.9637     4.6355 H       
  29 H29           -1.1492     5.2319     3.7531 H       
  30 H30           -2.6989     5.2157     2.8778 H       
  31 H31           -3.8322     8.2518     6.6394 H       
  32 H32           -4.9854     9.0364     8.6648 H       
  33 H33           -5.6314     4.9945     9.8817 H       
  34 H34           -4.4898     4.1928     7.8563 H       
@<TRIPOS>BOND
   1    1    2 1
   2    1    3 1
   3    1    4 1
   4    1    5 1
   5    2   18 1
   6    2   19 1
   7    2   20 1
   8    3   21 1
   9    3   22 1
  10    3   23 1
  11    4   24 1
  12    4   25 1
  13    4   26 1
  14    5    6 3
  15    6    7 1
  16    7    8 1
  17    7   27 1
  18    7   28 1
  19    8    9 1
  20    8   29 1
  21    8   30 1
  22    9   10 3
  23   10   11 1
  24   11   12 ar
  25   11   16 ar
  26   12   13 ar
  27   12   31 1
  28   13   14 ar
  29   13   32 1
  30   14   15 ar
  31   14   17 1
  32   15   16 ar
  33   15   33 1
  34   16   34 1

#	End of record

