#	Name: ASD01912455
#	Creating user name:	WinNT
#	Creation time:	15. 06. 2019 19:59

#	Modifying user name:	WinNT
#	Modification time:	15. 06. 2019 19:59

#	Program:	/corina/corina34_cracker 3.40 0067  02.08.2006

@<TRIPOS>MOLECULE
ASD01912455
  38   39    0    0    0
SMALL
NO_CHARGES


@<TRIPOS>ATOM
   1 C1            -0.0169     1.3972     0.0097 C.ar    
   2 C2             0.0021    -0.0041     0.0020 C.ar    
   3 C3             1.2457    -0.6498    -0.0133 C.ar    
   4 N4             2.3458     0.0806    -0.0199 N.ar    
   5 C5             2.2845     1.4040    -0.0122 C.ar    
   6 N6             1.1294     2.0526     0.0023 N.ar    
   7 C7            -1.2166    -0.7559     0.0101 C.1     
   8 C8            -2.2158    -1.3723     0.0167 C.1     
   9 C9            -3.4345    -2.1242     0.0248 C.ar    
  10 C10           -3.3978    -3.5211     0.0169 C.ar    
  11 C11           -4.5756    -4.2385     0.0252 C.ar    
  12 C12           -5.7917    -3.5784     0.0409 C.ar    
  13 C13           -5.8360    -2.1953     0.0487 C.ar    
  14 C14           -4.6663    -1.4645     0.0464 C.ar    
  15 N15            3.4661     2.1329    -0.0196 N.am    
  16 C16            3.4269     3.4801    -0.0120 C.2     
  17 C17            4.7094     4.2713    -0.0200 C.3     
  18 O18            2.3595     4.0556     0.0013 O.2     
  19 C19            4.3862     5.7668    -0.0089 C.3     
  20 C20            5.5340     3.9186     1.2196 C.3     
  21 C21            5.5102     3.9320    -1.2788 C.3     
  22 H22           -0.9547     1.9327     0.0171 H       
  23 H23            1.3035    -1.7282    -0.0193 H       
  24 H24           -2.4494    -4.0376     0.0040 H       
  25 H25           -4.5488    -5.3181     0.0192 H       
  26 H26           -6.7109    -4.1454     0.0466 H       
  27 H27           -6.7887    -1.6869     0.0606 H       
  28 H28           -4.7023    -0.3851     0.0525 H       
  29 H29            4.3199     1.6726    -0.0302 H       
  30 H30            3.8157     6.0085     0.8879 H       
  31 H31            5.3139     6.3390    -0.0146 H       
  32 H32            3.7988     6.0181    -0.8919 H       
  33 H33            5.7643     2.8532     1.2117 H       
  34 H34            6.4617     4.4908     1.2138 H       
  35 H35            4.9636     4.1603     2.1164 H       
  36 H36            4.9227     4.1833    -2.1618 H       
  37 H37            6.4379     4.5043    -1.2845 H       
  38 H38            5.7405     2.8666    -1.2867 H       
@<TRIPOS>BOND
   1    1    2 ar
   2    1    6 ar
   3    1   22 1
   4    2    3 ar
   5    2    7 1
   6    3    4 ar
   7    3   23 1
   8    4    5 ar
   9    5    6 ar
  10    5   15 1
  11    7    8 3
  12    8    9 1
  13    9   10 ar
  14    9   14 ar
  15   10   11 ar
  16   10   24 1
  17   11   12 ar
  18   11   25 1
  19   12   13 ar
  20   12   26 1
  21   13   14 ar
  22   13   27 1
  23   14   28 1
  24   15   16 am
  25   15   29 1
  26   16   17 1
  27   16   18 2
  28   17   19 1
  29   17   20 1
  30   17   21 1
  31   19   30 1
  32   19   31 1
  33   19   32 1
  34   20   33 1
  35   20   34 1
  36   20   35 1
  37   21   36 1
  38   21   37 1
  39   21   38 1

#	End of record

