#	Name: ASD01470036
#	Creating user name:	WinNT
#	Creation time:	15. 06. 2019 19:21

#	Modifying user name:	WinNT
#	Modification time:	15. 06. 2019 19:21

#	Program:	/corina/corina34_cracker 3.40 0067  02.08.2006

@<TRIPOS>MOLECULE
ASD01470036
  84   90    0    0    0
SMALL
NO_CHARGES


@<TRIPOS>ATOM
   1 N1            -0.9200     1.2685     0.9585 N.am    
   2 C2             0.4167     0.7206     0.7448 C.3     
   3 C3             0.7916    -0.2532     1.8708 C.3     
   4 C4             0.2788    -1.6591     1.5995 C.3     
   5 C5            -1.0139    -1.6363     0.8006 C.3     
   6 N6            -2.0123    -0.7859     1.4501 N.am    
   7 C7            -1.9647     0.5536     1.3444 C.2     
   8 O8            -2.9794     1.1641     1.6201 O.2     
   9 C9            -3.0823    -1.4054     2.2360 C.3     
  10 C10           -1.1158     2.7034     0.7371 C.3     
  11 C11           -0.9493     3.4402     2.0410 C.ar    
  12 C12           -2.6775    -1.4520     3.6869 C.ar    
  13 C13           -2.8486    -0.3490     4.4720 C.ar    
  14 C14           -2.4728    -0.3936     5.8193 C.ar    
  15 C15           -1.9222    -1.5759     6.3502 C.ar    
  16 C16           -1.7600    -2.6859     5.5246 C.ar    
  17 C17           -2.1388    -2.6195     4.2139 C.ar    
  18 C18            0.3149     3.8010     2.4719 C.ar    
  19 C19            0.4785     4.4769     3.6661 C.ar    
  20 C20           -0.6275     4.7972     4.4399 C.ar    
  21 C21           -1.9075     4.4331     4.0057 C.ar    
  22 C22           -2.0596     3.7574     2.7981 C.ar    
  23 C23           -2.5122     0.5687     6.9156 C.2     
  24 N24           -2.0274    -0.0144     7.9745 N.2     
  25 N25           -1.6546    -1.3280     7.6712 N.pl3   
  26 C26            0.4499    -0.0198    -0.5937 C.3     
  27 O27            2.2147    -0.2940     1.9946 O.3     
  28 C28            1.4471     0.6422    -1.5094 C.ar    
  29 C29            2.7841     0.2978    -1.4398 C.ar    
  30 C30            3.6988     0.9051    -2.2797 C.ar    
  31 C31            3.2765     1.8564    -3.1894 C.ar    
  32 C32            1.9394     2.2001    -3.2596 C.ar    
  33 C33            1.0240     1.5897    -2.4227 C.ar    
  34 C34           -1.5617    -3.0604     0.6879 C.3     
  35 O35            0.0464    -2.3198     2.8451 O.3     
  36 C36           -0.5873    -3.9140    -0.0821 C.ar    
  37 C37            0.3342    -4.6918     0.5937 C.ar    
  38 C38            1.2281    -5.4748    -0.1125 C.ar    
  39 C39            1.2003    -5.4802    -1.4946 C.ar    
  40 C40            0.2782    -4.7030    -2.1704 C.ar    
  41 C41           -0.6186    -3.9234    -1.4640 C.ar    
  42 C42           -3.0968     4.7709     4.8257 C.2     
  43 N43           -3.2053     4.6257     6.1296 N.2     
  44 N44           -4.4811     5.0599     6.5113 N.pl3   
  45 C45           -5.1351     5.4692     5.4031 C.2     
  46 C46           -4.3075     5.3094     4.3475 C.2     
  47 N47           -0.4646     5.4792     5.6461 N.pl3   
  48 H48            1.1394     1.5362     0.7200 H       
  49 H49            0.3631     0.1056     2.8066 H       
  50 H50            1.0335    -2.2118     1.0401 H       
  51 H51           -0.8113    -1.2525    -0.1992 H       
  52 H52           -3.9954    -0.8192     2.1322 H       
  53 H53           -3.2581    -2.4188     1.8751 H       
  54 H54           -0.3791     3.0641     0.0193 H       
  55 H55           -2.1186     2.8773     0.3469 H       
  56 H56           -3.2715     0.5534     4.0558 H       
  57 H57           -1.3384    -3.5980     5.9206 H       
  58 H58           -2.0115    -3.4828     3.5776 H       
  59 H59            1.1782     3.5530     1.8723 H       
  60 H60            1.4679     4.7556     3.9974 H       
  61 H61           -3.0446     3.4739     2.4579 H       
  62 H62           -2.8779     1.5833     6.8590 H       
  63 H63           -1.2687    -1.9620     8.2958 H       
  64 H64            0.7414    -1.0570    -0.4281 H       
  65 H65           -0.5392     0.0111    -1.0506 H       
  66 H66            2.5323    -0.8891     2.6875 H       
  67 H67            3.1140    -0.4454    -0.7291 H       
  68 H68            4.7435     0.6366    -2.2249 H       
  69 H69            3.9913     2.3313    -3.8451 H       
  70 H70            1.6095     2.9436    -3.9701 H       
  71 H71           -0.0206     1.8582    -2.4775 H       
  72 H72           -1.6998    -3.4767     1.6858 H       
  73 H73           -2.5188    -3.0413     0.1666 H       
  74 H74            0.8341    -2.4017     3.3999 H       
  75 H75            0.3560    -4.6876     1.6735 H       
  76 H76            1.9485    -6.0820     0.4154 H       
  77 H77            1.8991    -6.0914    -2.0464 H       
  78 H78            0.2566    -4.7070    -3.2502 H       
  79 H79           -1.3390    -3.3162    -1.9920 H       
  80 H80           -4.8338     5.0651     7.4149 H       
  81 H81           -6.1414     5.8596     5.3675 H       
  82 H82           -4.5357     5.5463     3.3188 H       
  83 H83            0.4144     5.7916     5.9118 H       
  84 H84           -1.2304     5.6408     6.2191 H       
@<TRIPOS>BOND
   1    1    2 1
   2    1   10 1
   3    1    7 am
   4    2    3 1
   5    2   26 1
   6    2   48 1
   7    3    4 1
   8    3   27 1
   9    3   49 1
  10    4    5 1
  11    4   35 1
  12    4   50 1
  13    5    6 1
  14    5   34 1
  15    5   51 1
  16    6    7 am
  17    6    9 1
  18    7    8 2
  19    9   12 1
  20    9   52 1
  21    9   53 1
  22   10   11 1
  23   10   54 1
  24   10   55 1
  25   11   18 ar
  26   11   22 ar
  27   12   13 ar
  28   12   17 ar
  29   13   14 ar
  30   13   56 1
  31   14   15 ar
  32   14   23 1
  33   15   16 ar
  34   15   25 1
  35   16   17 ar
  36   16   57 1
  37   17   58 1
  38   18   19 ar
  39   18   59 1
  40   19   20 ar
  41   19   60 1
  42   20   21 ar
  43   20   47 1
  44   21   22 ar
  45   21   42 1
  46   22   61 1
  47   23   24 2
  48   23   62 1
  49   24   25 1
  50   25   63 1
  51   26   28 1
  52   26   64 1
  53   26   65 1
  54   27   66 1
  55   28   29 ar
  56   28   33 ar
  57   29   30 ar
  58   29   67 1
  59   30   31 ar
  60   30   68 1
  61   31   32 ar
  62   31   69 1
  63   32   33 ar
  64   32   70 1
  65   33   71 1
  66   34   36 1
  67   34   72 1
  68   34   73 1
  69   35   74 1
  70   36   37 ar
  71   36   41 ar
  72   37   38 ar
  73   37   75 1
  74   38   39 ar
  75   38   76 1
  76   39   40 ar
  77   39   77 1
  78   40   41 ar
  79   40   78 1
  80   41   79 1
  81   42   43 2
  82   42   46 1
  83   43   44 1
  84   44   45 1
  85   44   80 1
  86   45   46 2
  87   45   81 1
  88   46   82 1
  89   47   83 1
  90   47   84 1

#	End of record

