#	Name: ASD03331204
#	Creating user name:	WinNT
#	Creation time:	15. 06. 2019 20:38

#	Modifying user name:	WinNT
#	Modification time:	15. 06. 2019 20:38

#	Program:	/corina/corina34_cracker 3.40 0067  02.08.2006

@<TRIPOS>MOLECULE
ASD03331204
  59   63    0    0    0
SMALL
NO_CHARGES


@<TRIPOS>ATOM
   1 N1            -0.0459     1.4956     0.5698 N.am    
   2 C2             0.0019     0.1506     1.1632 C.3     
   3 C3             0.5966    -0.8151     0.1327 C.3     
   4 N4             1.8894    -0.2950    -0.3322 N.3     
   5 C5             1.7288     0.9911    -1.0237 C.3     
   6 C6             1.1805     2.0309    -0.0406 C.3     
   7 C7            -1.1849     2.2161     0.5803 C.2     
   8 O8            -2.2139     1.7207     0.9974 O.2     
   9 N9            -1.1831     3.4859     0.1284 N.am    
  10 C10           -2.3851     4.1963     0.0330 C.ar    
  11 C11           -2.4015     5.5681     0.2481 C.ar    
  12 C12           -3.5892     6.2664     0.1527 C.ar    
  13 C13           -4.7613     5.6010    -0.1566 C.ar    
  14 C14           -4.7483     4.2350    -0.3714 C.ar    
  15 C15           -3.5629     3.5318    -0.2826 C.ar    
  16 C16            2.5723    -1.2724    -1.1902 C.3     
  17 C17            3.7648    -0.6215    -1.8425 C.ar    
  18 C18            5.0000    -0.6560    -1.2143 C.ar    
  19 C19            6.1003    -0.0653    -1.7979 C.ar    
  20 C20            5.9778     0.5728    -3.0282 C.ar    
  21 C21            4.7268     0.6067    -3.6625 C.ar    
  22 C22            3.6247     0.0011    -3.0643 C.ar    
  23 N23            6.8908     1.2351    -3.8293 N.pl3   
  24 C24            6.2726     1.7040    -4.9747 C.ar    
  25 C25            4.9185     1.3413    -4.9265 C.ar    
  26 C26            8.3093     1.4147    -3.5101 C.3     
  27 C27            9.1112     0.2389    -4.0716 C.3     
  28 C28            6.7478     2.4178    -6.0708 C.ar    
  29 C29            5.8914     2.7613    -7.0944 C.ar    
  30 C30            4.5531     2.4022    -7.0448 C.ar    
  31 C31            4.0639     1.6946    -5.9682 C.ar    
  32 H32            0.6285     0.1659     2.0549 H       
  33 H33           -1.0063    -0.1697     1.4260 H       
  34 H34            0.7419    -1.7929     0.5920 H       
  35 H35           -0.0837    -0.9080    -0.7138 H       
  36 H36            2.6951     1.3233    -1.4030 H       
  37 H37            1.0326     0.8731    -1.8541 H       
  38 H38            0.9515     2.9537    -0.5736 H       
  39 H39            1.9203     2.2269     0.7355 H       
  40 H40           -0.3488     3.9073    -0.1307 H       
  41 H41           -1.4865     6.0883     0.4900 H       
  42 H42           -3.6027     7.3332     0.3202 H       
  43 H43           -5.6889     6.1492    -0.2303 H       
  44 H44           -5.6653     3.7181    -0.6128 H       
  45 H45           -3.5526     2.4657    -0.4549 H       
  46 H46            2.9044    -2.1167    -0.5862 H       
  47 H47            1.8845    -1.6240    -1.9592 H       
  48 H48            5.1011    -1.1496    -0.2590 H       
  49 H49            7.0580    -0.0976    -1.2998 H       
  50 H50            2.6615     0.0264    -3.5522 H       
  51 H51            8.6670     2.3436    -3.9544 H       
  52 H52            8.4358     1.4571    -2.4283 H       
  53 H53            8.9848     0.1965    -5.1534 H       
  54 H54           10.1666     0.3725    -3.8341 H       
  55 H55            8.7536    -0.6900    -3.6273 H       
  56 H56            7.7883     2.7030    -6.1191 H       
  57 H57            6.2659     3.3152    -7.9425 H       
  58 H58            3.8917     2.6779    -7.8529 H       
  59 H59            3.0211     1.4160    -5.9317 H       
@<TRIPOS>BOND
   1    1    2 1
   2    1    6 1
   3    1    7 am
   4    2    3 1
   5    2   32 1
   6    2   33 1
   7    3    4 1
   8    3   34 1
   9    3   35 1
  10    4    5 1
  11    4   16 1
  12    5    6 1
  13    5   36 1
  14    5   37 1
  15    6   38 1
  16    6   39 1
  17    7    8 2
  18    7    9 am
  19    9   10 1
  20    9   40 1
  21   10   11 ar
  22   10   15 ar
  23   11   12 ar
  24   11   41 1
  25   12   13 ar
  26   12   42 1
  27   13   14 ar
  28   13   43 1
  29   14   15 ar
  30   14   44 1
  31   15   45 1
  32   16   17 1
  33   16   46 1
  34   16   47 1
  35   17   18 ar
  36   17   22 ar
  37   18   19 ar
  38   18   48 1
  39   19   20 ar
  40   19   49 1
  41   20   21 ar
  42   20   23 1
  43   21   22 ar
  44   21   25 1
  45   22   50 1
  46   23   24 1
  47   23   26 1
  48   24   25 ar
  49   24   28 ar
  50   25   31 ar
  51   26   27 1
  52   26   51 1
  53   26   52 1
  54   27   53 1
  55   27   54 1
  56   27   55 1
  57   28   29 ar
  58   28   56 1
  59   29   30 ar
  60   29   57 1
  61   30   31 ar
  62   30   58 1
  63   31   59 1

#	End of record

