#	Name: ASD07330016
#	Creating user name:	WinNT
#	Creation time:	15. 06. 2019 21:11

#	Modifying user name:	WinNT
#	Modification time:	15. 06. 2019 21:11

#	Program:	/corina/corina34_cracker 3.40 0067  02.08.2006

@<TRIPOS>MOLECULE
ASD07330016
  70   73    0    0    0
SMALL
NO_CHARGES


@<TRIPOS>ATOM
   1 C1             3.7429     2.3292    -0.3977 C.ar    
   2 C2             4.2194     1.4656     0.5774 C.ar    
   3 N3             4.4543     0.1957     0.3228 N.ar    
   4 C4             4.2448    -0.3200    -0.8843 C.ar    
   5 C5             3.7591     0.5038    -1.9252 C.ar    
   6 C6             3.5047     1.8522    -1.6746 C.ar    
   7 N7             4.4868    -1.6277    -1.1477 N.2     
   8 C8             4.2839    -2.1359    -2.3258 C.2     
   9 N9             3.8195    -1.4178    -3.3817 N.am    
  10 C10            3.5398    -0.1001    -3.2459 C.2     
  11 O11            3.1228     0.5579    -4.1813 O.2     
  12 C12            3.6291    -2.0457    -4.6205 C.ar    
  13 C13            2.3635    -2.4796    -4.9920 C.ar    
  14 C14            2.1765    -3.0975    -6.2124 C.ar    
  15 C15            3.2528    -3.2848    -7.0676 C.ar    
  16 C16            4.5176    -2.8515    -6.6970 C.ar    
  17 C17            4.7049    -2.2287    -5.4791 C.ar    
  18 C18            4.5796    -3.5991    -2.5325 C.3     
  19 C19            5.9751    -3.9186    -1.9929 C.3     
  20 N20            3.5844    -4.4039    -1.8197 N.am    
  21 C21            3.3596    -4.1911    -0.3877 C.3     
  22 C22            2.1666    -3.2908    -0.1948 C.2     
  23 C23            1.1709    -3.6688     0.5987 C.2     
  24 B24            1.3186    -4.9565     1.4846 Du      
  25 O25            2.5814    -5.2966     2.0378 O.3     
  26 O26            0.1894    -5.7810     1.7327 O.3     
  27 C27            2.8755    -5.3400    -2.4812 C.2     
  28 C28            1.8518    -6.1679    -1.7480 C.3     
  29 O29            3.0615    -5.5162    -3.6667 O.2     
  30 C30            1.2049    -7.1327    -2.7080 C.ar    
  31 C31            1.7487    -8.3901    -2.8951 C.ar    
  32 C32            0.0651    -6.7621    -3.3966 C.ar    
  33 C33           -0.5293    -7.6464    -4.2770 C.ar    
  34 C34            0.0173    -8.9037    -4.4691 C.ar    
  35 C35            1.1562    -9.2758    -3.7747 C.ar    
  36 F36           -0.5628    -9.7688    -5.3294 F       
  37 O37            3.0681    -3.8937    -8.2690 O.3     
  38 C38            3.8189    -4.7535   -10.3991 C.3     
  39 C39            4.2202    -4.0537    -9.0991 C.3     
  40 C40            1.7528   -10.6439    -3.9831 C.3     
  41 F41            2.8885   -10.7849    -3.1785 F       
  42 F42            0.8123   -11.6203    -3.6375 F       
  43 F43            2.1113   -10.7966    -5.3267 F       
  44 H44            3.5548     3.3660    -0.1607 H       
  45 H45            4.4029     1.8451     1.5718 H       
  46 H46            3.1331     2.5031    -2.4523 H       
  47 H47            1.5256    -2.3342    -4.3262 H       
  48 H48            1.1922    -3.4354    -6.5013 H       
  49 H49            5.3552    -2.9979    -7.3629 H       
  50 H50            5.6895    -1.8911    -5.1908 H       
  51 H51            4.5397    -3.8311    -3.5968 H       
  52 H52            6.1532    -4.9920    -2.0586 H       
  53 H53            6.7230    -3.3894    -2.5835 H       
  54 H54            6.0435    -3.6020    -0.9521 H       
  55 H55            3.1739    -5.1494     0.0972 H       
  56 H56            4.2412    -3.7256     0.0531 H       
  57 H57            2.1213    -2.3383    -0.7018 H       
  58 H58            0.2596    -3.0903     0.6344 H       
  59 H59            2.5736    -6.1053     2.5680 H       
  60 H60            0.3782    -6.5498     2.2880 H       
  61 H61            2.3399    -6.7240    -0.9476 H       
  62 H62            1.0911    -5.5126    -1.3236 H       
  63 H63            2.6371    -8.6800    -2.3537 H       
  64 H64           -0.3613    -5.7813    -3.2463 H       
  65 H65           -1.4200    -7.3567    -4.8146 H       
  66 H66            4.6977    -4.8756   -11.0323 H       
  67 H67            3.3976    -5.7323   -10.1697 H       
  68 H68            3.0755    -4.1513   -10.9214 H       
  69 H69            4.6415    -3.0749    -9.3285 H       
  70 H70            4.9636    -4.6559    -8.5768 H       
@<TRIPOS>BOND
   1    1    2 ar
   2    1    6 ar
   3    1   44 1
   4    2    3 ar
   5    2   45 1
   6    3    4 ar
   7    4    5 ar
   8    4    7 1
   9    5    6 ar
  10    5   10 1
  11    6   46 1
  12    7    8 2
  13    8    9 1
  14    8   18 1
  15    9   10 am
  16    9   12 1
  17   10   11 2
  18   12   13 ar
  19   12   17 ar
  20   13   14 ar
  21   13   47 1
  22   14   15 ar
  23   14   48 1
  24   15   16 ar
  25   15   37 1
  26   16   17 ar
  27   16   49 1
  28   17   50 1
  29   18   19 1
  30   18   20 1
  31   18   51 1
  32   19   52 1
  33   19   53 1
  34   19   54 1
  35   20   21 1
  36   20   27 am
  37   21   22 1
  38   21   55 1
  39   21   56 1
  40   22   23 2
  41   22   57 1
  42   23   24 1
  43   23   58 1
  44   24   25 1
  45   24   26 1
  46   25   59 1
  47   26   60 1
  48   27   28 1
  49   27   29 2
  50   28   30 1
  51   28   61 1
  52   28   62 1
  53   30   31 ar
  54   30   32 ar
  55   31   35 ar
  56   31   63 1
  57   32   33 ar
  58   32   64 1
  59   33   34 ar
  60   33   65 1
  61   34   35 ar
  62   34   36 1
  63   35   40 1
  64   37   39 1
  65   38   39 1
  66   38   66 1
  67   38   67 1
  68   38   68 1
  69   39   69 1
  70   39   70 1
  71   40   41 1
  72   40   42 1
  73   40   43 1

#	End of record

