#	Name: ASD01882028
#	Creating user name:	WinNT
#	Creation time:	15. 06. 2019 19:43

#	Modifying user name:	WinNT
#	Modification time:	15. 06. 2019 19:43

#	Program:	/corina/corina34_cracker 3.40 0067  02.08.2006

@<TRIPOS>MOLECULE
ASD01882028
  49   53    0    0    0
SMALL
NO_CHARGES


@<TRIPOS>ATOM
   1 C1            -0.0161     1.3337     0.0094 C.2     
   2 N2             0.0021    -0.0041     0.0020 N.am    
   3 C3             1.2613    -0.4841    -0.0126 C.2     
   4 C4             2.1640     0.7337    -0.0147 C.3     
   5 N5             1.2200     1.8645     0.0004 N.am    
   6 O6            -1.0354     1.9955     0.0180 O.2     
   7 O7             1.6013    -1.6477    -0.0215 O.2     
   8 C8            -1.1986    -0.8435     0.0097 C.3     
   9 C9             1.5609     3.2893     0.0041 C.3     
  10 C10            1.6916     3.7708     1.4261 C.ar    
  11 C11            2.8571     3.5246     2.1341 C.ar    
  12 C12            2.9810     3.9640     3.4386 C.ar    
  13 C13            1.9311     4.6559     4.0402 C.ar    
  14 C14            0.7619     4.9005     3.3219 C.ar    
  15 C15            0.6503     4.4618     2.0179 C.ar    
  16 F16            3.8732     2.8537     1.5487 F       
  17 C17            2.1362     6.5946     9.4071 C.2     
  18 N18            0.9292     7.1738     9.5254 N.am    
  19 C19            0.2037     7.0165     8.2597 C.3     
  20 C20            1.1256     6.2592     7.3365 C.ar    
  21 C21            1.0049     5.8225     6.0405 C.ar    
  22 C22            2.0575     5.1297     5.4395 C.ar    
  23 C23            3.2283     4.8832     6.1573 C.ar    
  24 C24            3.3489     5.3206     7.4567 C.ar    
  25 C25            2.2964     6.0146     8.0608 C.ar    
  26 O26            2.9780     6.5585    10.2834 O.2     
  27 C27            0.4214     7.8508    10.7212 C.3     
  28 C28            0.3085     7.0266    12.0053 C.3     
  29 C29            1.4037     8.0864    11.8703 C.3     
  30 H30            2.7924     0.7467     0.8759 H       
  31 H31            2.7753     0.7564    -0.9169 H       
  32 H32           -1.5068    -1.0461    -1.0159 H       
  33 H33           -0.9813    -1.7838     0.5163 H       
  34 H34           -2.0010    -0.3250     0.5345 H       
  35 H35            2.5060     3.4381    -0.5182 H       
  36 H36            0.7749     3.8522    -0.4994 H       
  37 H37            3.8891     3.7715     3.9906 H       
  38 H38           -0.0544     5.4359     3.7839 H       
  39 H39           -0.2541     4.6548     1.4600 H       
  40 H40           -0.7131     6.4496     8.4214 H       
  41 H41           -0.0292     7.9940     7.8375 H       
  42 H42            0.0974     6.0139     5.4872 H       
  43 H43            4.0423     4.3472     5.6920 H       
  44 H44            4.2563     5.1274     8.0096 H       
  45 H45           -0.3379     8.6124    10.5436 H       
  46 H46           -0.5249     7.2462    12.6726 H       
  47 H47            0.6120     5.9806    11.9603 H       
  48 H48            2.4277     7.7377    11.7366 H       
  49 H49            1.2908     9.0032    12.4489 H       
@<TRIPOS>BOND
   1    1    2 am
   2    1    5 am
   3    1    6 2
   4    2    3 am
   5    2    8 1
   6    3    4 1
   7    3    7 2
   8    4    5 1
   9    4   30 1
  10    4   31 1
  11    5    9 1
  12    8   32 1
  13    8   33 1
  14    8   34 1
  15    9   10 1
  16    9   35 1
  17    9   36 1
  18   10   11 ar
  19   10   15 ar
  20   11   12 ar
  21   11   16 1
  22   12   13 ar
  23   12   37 1
  24   13   14 ar
  25   13   22 1
  26   14   15 ar
  27   14   38 1
  28   15   39 1
  29   17   18 am
  30   17   25 1
  31   17   26 2
  32   18   19 1
  33   18   27 1
  34   19   20 1
  35   19   40 1
  36   19   41 1
  37   20   21 ar
  38   20   25 ar
  39   21   22 ar
  40   21   42 1
  41   22   23 ar
  42   23   24 ar
  43   23   43 1
  44   24   25 ar
  45   24   44 1
  46   27   28 1
  47   27   29 1
  48   27   45 1
  49   28   29 1
  50   28   46 1
  51   28   47 1
  52   29   48 1
  53   29   49 1

#	End of record

