#	Name: ASD01815860
#	Creating user name:	WinNT
#	Creation time:	15. 06. 2019 19:34

#	Modifying user name:	WinNT
#	Modification time:	15. 06. 2019 19:34

#	Program:	/corina/corina34_cracker 3.40 0067  02.08.2006

@<TRIPOS>MOLECULE
ASD01815860
  47   52    0    0    0
SMALL
NO_CHARGES


@<TRIPOS>ATOM
   1 C1            -0.0168     1.3906     0.0097 C.ar    
   2 C2             0.0021    -0.0041     0.0020 C.ar    
   3 C3            -1.1955    -0.6912     0.0102 C.ar    
   4 N4            -2.3462    -0.0452     0.0247 N.ar    
   5 C5            -2.4062     1.2731     0.0324 C.ar    
   6 C6            -1.2542     2.0342     0.0308 C.ar    
   7 Cl7           -1.3445     3.7678     0.0409 Cl      
   8 N8             1.1721     2.1235     0.0023 N.am    
   9 C9             1.8197     2.5351    -1.1078 C.2     
  10 N10            1.8621     2.5430     1.1446 N.2     
  11 C11            2.9347     3.2059     0.7986 C.2     
  12 C12            2.9698     3.2391    -0.6792 C.2     
  13 O13            1.4779     2.3375    -2.2627 O.2     
  14 C14            4.0246     3.8741     1.5255 C.2     
  15 C15            5.0248     4.4941     0.8064 C.2     
  16 N16            4.9823     4.4749    -0.5916 N.pl3   
  17 C17            4.0129     3.8855    -1.2973 C.2     
  18 C18            6.0607     5.1432    -1.3242 C.3     
  19 C19            7.1759     4.1628    -1.5815 C.ar    
  20 C20            7.1741     3.4033    -2.7370 C.ar    
  21 C21            8.1946     2.5036    -2.9753 C.ar    
  22 C22            9.2232     2.3626    -2.0535 C.ar    
  23 C23            9.2225     3.1269    -0.8945 C.ar    
  24 C24            8.2020     4.0287    -0.6642 C.ar    
  25 S25            4.3289     4.0530     3.2485 S.3     
  26 C26            5.7988     4.9606     2.9346 C.2     
  27 C27            5.9908     5.0854     1.6275 C.2     
  28 Cl28           1.5101    -0.8638    -0.0182 Cl      
  29 N29           10.2601     1.4500    -2.2924 N.pl3   
  30 C30           11.3165     1.2156    -1.4815 C.2     
  31 C31           12.0844     0.2689    -2.0690 C.2     
  32 C32           11.4784    -0.0877    -3.2787 C.2     
  33 N33           10.3822     0.6150    -3.4106 N.2     
  34 H34           -1.1906    -1.7712     0.0044 H       
  35 H35           -3.3687     1.7628     0.0442 H       
  36 H36            4.0519     3.9146    -2.3762 H       
  37 H37            5.6779     5.5157    -2.2744 H       
  38 H38            6.4391     5.9771    -0.7330 H       
  39 H39            6.3737     3.5134    -3.4537 H       
  40 H40            8.1922     1.9102    -3.8777 H       
  41 H41           10.0211     3.0191    -0.1754 H       
  42 H42            8.2009     4.6235     0.2372 H       
  43 H43            6.4525     5.3601     3.6959 H       
  44 H44            6.8420     5.6121     1.2219 H       
  45 H45           11.5125     1.6978    -0.5352 H       
  46 H46           13.0029    -0.1394    -1.6739 H       
  47 H47           11.8490    -0.8201    -3.9806 H       
@<TRIPOS>BOND
   1    1    2 ar
   2    1    8 1
   3    1    6 ar
   4    2    3 ar
   5    2   28 1
   6    3    4 ar
   7    3   34 1
   8    4    5 ar
   9    5    6 ar
  10    5   35 1
  11    6    7 1
  12    8    9 am
  13    8   10 1
  14    9   13 2
  15    9   12 1
  16   10   11 2
  17   11   12 1
  18   11   14 1
  19   12   17 2
  20   14   15 2
  21   14   25 1
  22   15   16 1
  23   15   27 1
  24   16   17 1
  25   16   18 1
  26   17   36 1
  27   18   19 1
  28   18   37 1
  29   18   38 1
  30   19   20 ar
  31   19   24 ar
  32   20   21 ar
  33   20   39 1
  34   21   22 ar
  35   21   40 1
  36   22   23 ar
  37   22   29 1
  38   23   24 ar
  39   23   41 1
  40   24   42 1
  41   25   26 1
  42   26   27 2
  43   26   43 1
  44   27   44 1
  45   29   30 1
  46   29   33 1
  47   30   31 2
  48   30   45 1
  49   31   32 1
  50   31   46 1
  51   32   33 2
  52   32   47 1

#	End of record

