#	Name: ASD01883705
#	Creating user name:	WinNT
#	Creation time:	15. 06. 2019 19:46

#	Modifying user name:	WinNT
#	Modification time:	15. 06. 2019 19:46

#	Program:	/corina/corina34_cracker 3.40 0067  02.08.2006

@<TRIPOS>MOLECULE
ASD01883705
  53   56    0    0    0
SMALL
NO_CHARGES


@<TRIPOS>ATOM
   1 Cl1            1.4676     2.2795     0.0003 Cl      
   2 C2            -0.0167     1.3792     0.0096 C.2     
   3 C3             0.0021    -0.0041     0.0020 C.2     
   4 C4            -1.2232    -0.7132     0.0099 C.2     
   5 C5            -2.3914    -0.0450     0.0241 C.2     
   6 N6            -2.4195     1.3213     0.0313 N.pl3   
   7 C7            -1.2556     2.0465     0.0309 C.2     
   8 C8            -3.4509     2.2222     0.0451 C.2     
   9 C9            -2.9029     3.4572     0.0464 C.2     
  10 N10           -1.5738     3.3345     0.0387 N.2     
  11 C11           -4.9223     1.8967     0.0561 C.3     
  12 C12           -5.4599     1.9170    -1.3761 C.3     
  13 C13            1.2901    -0.7352    -0.0147 C.ar    
  14 C14            1.6565    -1.5297     1.0718 C.ar    
  15 C15            2.8556    -2.2098     1.0541 C.ar    
  16 C16            3.6997    -2.1047    -0.0450 C.ar    
  17 C17            3.3372    -1.3125    -1.1303 C.ar    
  18 C18            2.1364    -0.6350    -1.1198 C.ar    
  19 F19           -4.7779     0.9668    -2.1437 F       
  20 F20           -6.8259     1.6149    -1.3658 F       
  21 F21           -5.2675     3.1879    -1.9285 F       
  22 N22            4.9133    -2.7944    -0.0602 N.pl3   
  23 C23            5.2962    -3.6283     1.0818 C.3     
  24 C24            6.2691    -4.7139     0.6172 C.3     
  25 C25            6.6690    -5.5848     1.8099 C.3     
  26 C26            7.3445    -4.7154     2.8723 C.3     
  27 C27            6.3717    -3.6298     3.3370 C.3     
  28 C28            5.9717    -2.7589     2.1443 C.3     
  29 O29            8.5105    -4.1040     2.3167 O.3     
  30 Cl30           4.3943    -1.1831    -2.5013 Cl      
  31 C31            7.7445    -5.5862     4.0651 C.3     
  32 H32           -1.2204    -1.7932     0.0040 H       
  33 H33           -3.3199    -0.5965     0.0296 H       
  34 H34           -3.4494     4.3887     0.0557 H       
  35 H35           -5.0722     0.9066     0.4865 H       
  36 H36           -5.4537     2.6371     0.6542 H       
  37 H37            1.0014    -1.6117     1.9265 H       
  38 H38            3.1395    -2.8246     1.8954 H       
  39 H39            1.8550    -0.0205    -1.9621 H       
  40 H40            5.5030    -2.7216    -0.8270 H       
  41 H41            4.4068    -4.0946     1.5056 H       
  42 H42            5.7878    -5.3333    -0.1397 H       
  43 H43            7.1585    -4.2476     0.1933 H       
  44 H44            5.7796    -6.0511     2.2337 H       
  45 H45            7.3621    -6.3582     1.4789 H       
  46 H46            5.4823    -4.0961     3.7608 H       
  47 H47            6.8529    -3.0104     4.0939 H       
  48 H48            6.8611    -2.2926     1.7204 H       
  49 H49            5.2787    -1.9855     2.4753 H       
  50 H50            8.9903    -3.5370     2.9359 H       
  51 H51            8.4375    -6.3597     3.7340 H       
  52 H52            8.2257    -4.9669     4.8220 H       
  53 H53            6.8551    -6.0526     4.4889 H       
@<TRIPOS>BOND
   1    1    2 1
   2    2    3 2
   3    2    7 1
   4    3    4 1
   5    3   13 1
   6    4    5 2
   7    4   32 1
   8    5    6 1
   9    5   33 1
  10    6    7 1
  11    6    8 1
  12    7   10 2
  13    8    9 2
  14    8   11 1
  15    9   10 1
  16    9   34 1
  17   11   12 1
  18   11   35 1
  19   11   36 1
  20   12   19 1
  21   12   20 1
  22   12   21 1
  23   13   14 ar
  24   13   18 ar
  25   14   15 ar
  26   14   37 1
  27   15   16 ar
  28   15   38 1
  29   16   17 ar
  30   16   22 1
  31   17   18 ar
  32   17   30 1
  33   18   39 1
  34   22   23 1
  35   22   40 1
  36   23   24 1
  37   23   28 1
  38   23   41 1
  39   24   25 1
  40   24   42 1
  41   24   43 1
  42   25   26 1
  43   25   44 1
  44   25   45 1
  45   26   27 1
  46   26   29 1
  47   26   31 1
  48   27   28 1
  49   27   46 1
  50   27   47 1
  51   28   48 1
  52   28   49 1
  53   29   50 1
  54   31   51 1
  55   31   52 1
  56   31   53 1

#	End of record

