#	Name: ASD02030097
#	Creating user name:	WinNT
#	Creation time:	15. 06. 2019 20:14

#	Modifying user name:	WinNT
#	Modification time:	15. 06. 2019 20:14

#	Program:	/corina/corina34_cracker 3.40 0067  02.08.2006

@<TRIPOS>MOLECULE
ASD02030097
  54   57    0    0    0
SMALL
NO_CHARGES


@<TRIPOS>ATOM
   1 N1            -0.2049     1.7556    -0.2361 N.am    
   2 C2            -0.2488     0.2894    -0.3271 C.3     
   3 C3            -1.0449    -0.2521     0.8667 C.3     
   4 N4            -2.3099     0.4898     0.9630 N.am    
   5 C5            -2.2660     1.9560     1.0540 C.3     
   6 C6            -1.4697     2.4971    -0.1342 C.3     
   7 C7             0.9744     2.4081    -0.2403 C.2     
   8 C8             2.2407     1.6465    -0.1967 C.2     
   9 N9             3.4461     2.1565    -0.0636 N.2     
  10 N10            2.3631     0.3090    -0.2801 N.2     
  11 C11            3.6392     0.0295    -0.2018 C.2     
  12 N12            4.3042     1.1953    -0.0665 N.pl3   
  13 O13            0.9968     3.6228    -0.2800 O.2     
  14 C14           -3.4892    -0.1627     0.9672 C.2     
  15 C15           -3.5164    -1.6440     0.9429 C.ar    
  16 O16           -4.5301     0.4638     0.9910 O.2     
  17 C17           -1.1791     3.9843     0.0770 C.3     
  18 C18           -2.2739     2.3052    -1.4215 C.3     
  19 C19            5.6935     1.3370     0.0505 C.ar    
  20 C20            6.2551     2.5998     0.1848 C.ar    
  21 C21            7.6247     2.7362     0.2999 C.ar    
  22 C22            8.4365     1.6169     0.2810 C.ar    
  23 C23            7.8802     0.3580     0.1475 C.ar    
  24 C24            6.5108     0.2146     0.0382 C.ar    
  25 N25           -2.4171    -2.3272     1.2362 N.ar    
  26 C26           -2.3988    -3.6422     1.2267 C.ar    
  27 C27           -3.5354    -4.3674     0.9071 C.ar    
  28 C28           -4.7058    -3.6935     0.5942 C.ar    
  29 C29           -4.6972    -2.3078     0.6179 C.ar    
  30 C30           -1.1242    -4.3703     1.5675 C.3     
  31 F31           -0.1510    -3.4465     1.9633 F       
  32 F32           -1.3656    -5.2695     2.6118 F       
  33 F33           -0.6725    -5.0709     0.4439 F       
  34 H34           -0.7370    -0.0050    -1.2562 H       
  35 H35            0.7653    -0.1093    -0.3016 H       
  36 H36           -1.2527    -1.3117     0.7175 H       
  37 H37           -0.4698    -0.1149     1.7824 H       
  38 H38           -3.2802     2.3546     1.0285 H       
  39 H39           -1.7778     2.2503     1.9830 H       
  40 H40            4.0797    -0.9559    -0.2359 H       
  41 H41           -0.4301     4.1005     0.8603 H       
  42 H42           -0.8045     4.4167    -0.8508 H       
  43 H43           -2.0956     4.4953     0.3719 H       
  44 H44           -3.2185     2.8435    -1.3434 H       
  45 H45           -1.7044     2.6916    -2.2668 H       
  46 H46           -2.4718     1.2439    -1.5715 H       
  47 H47            5.6217     3.4744     0.1988 H       
  48 H48            8.0621     3.7182     0.4043 H       
  49 H49            9.5072     1.7262     0.3705 H       
  50 H50            8.5168    -0.5143     0.1331 H       
  51 H51            6.0769    -0.7689    -0.0658 H       
  52 H52           -3.5097    -5.4471     0.9014 H       
  53 H53           -5.6048    -4.2360     0.3414 H       
  54 H54           -5.5911    -1.7505     0.3796 H       
@<TRIPOS>BOND
   1    1    2 1
   2    1    7 am
   3    1    6 1
   4    2    3 1
   5    2   34 1
   6    2   35 1
   7    3    4 1
   8    3   36 1
   9    3   37 1
  10    4    5 1
  11    4   14 am
  12    5    6 1
  13    5   38 1
  14    5   39 1
  15    6   17 1
  16    6   18 1
  17    7    8 1
  18    7   13 2
  19    8    9 2
  20    8   10 1
  21    9   12 1
  22   10   11 2
  23   11   12 1
  24   11   40 1
  25   12   19 1
  26   14   15 1
  27   14   16 2
  28   15   25 ar
  29   15   29 ar
  30   17   41 1
  31   17   42 1
  32   17   43 1
  33   18   44 1
  34   18   45 1
  35   18   46 1
  36   19   20 ar
  37   19   24 ar
  38   20   21 ar
  39   20   47 1
  40   21   22 ar
  41   21   48 1
  42   22   23 ar
  43   22   49 1
  44   23   24 ar
  45   23   50 1
  46   24   51 1
  47   25   26 ar
  48   26   27 ar
  49   26   30 1
  50   27   28 ar
  51   27   52 1
  52   28   29 ar
  53   28   53 1
  54   29   54 1
  55   30   31 1
  56   30   32 1
  57   30   33 1

#	End of record

