#	Name: ASD03540020
#	Creating user name:	WinNT
#	Creation time:	15. 06. 2019 20:42

#	Modifying user name:	WinNT
#	Modification time:	15. 06. 2019 20:42

#	Program:	/corina/corina34_cracker 3.40 0067  02.08.2006

@<TRIPOS>MOLECULE
ASD03540020
  46   49    0    0    0
SMALL
NO_CHARGES


@<TRIPOS>ATOM
   1 C1            -0.0164     1.3617     0.0095 C.2     
   2 N2             0.0021    -0.0041     0.0020 N.am    
   3 C3             1.2161    -0.6312    -0.0130 C.2     
   4 C4             2.3785     0.0982    -0.0198 C.2     
   5 C5             2.3148     1.4975    -0.0112 C.2     
   6 N6             1.1050     2.0909     0.0027 N.am    
   7 S7             0.9929    -2.3853    -0.0209 S.3     
   8 C8            -1.1761    -0.8677     0.0082 C.3     
   9 C9            -0.8240    -2.3530    -0.0036 C.3     
  10 C10           -1.3744    -3.0150    -1.2405 C.2     
  11 O11           -1.4743    -2.3849    -2.2720 O.2     
  12 N12           -1.7555    -4.3071    -1.2005 N.am    
  13 C13           -2.2905    -4.9506    -2.4030 C.3     
  14 C14           -4.1848    -8.0496    -1.3630 C.ar    
  15 C15           -3.9023    -6.7247    -1.6367 C.ar    
  16 C16           -2.6383    -6.3838    -2.0932 C.ar    
  17 C17           -1.7020    -7.3930    -2.2585 C.ar    
  18 C18           -2.0572    -8.6959    -1.9648 C.ar    
  19 N19           -3.2692    -8.9834    -1.5320 N.ar    
  20 O20            3.3346     2.1659    -0.0167 O.2     
  21 O21           -1.0890     1.9342     0.0177 O.2     
  22 C22            1.0169     3.5532     0.0115 C.3     
  23 C23            1.0002     4.0469     1.4352 C.ar    
  24 C24            2.1875     4.3455     2.0771 C.ar    
  25 C25            2.1722     4.7984     3.3831 C.ar    
  26 C26            0.9697     4.9531     4.0470 C.ar    
  27 C27           -0.2177     4.6554     3.4048 C.ar    
  28 C28           -0.2027     4.2066     2.0974 C.ar    
  29 H29            3.3351    -0.4029    -0.0313 H       
  30 H30           -1.7644    -0.6531     0.9004 H       
  31 H31           -1.7811    -0.6430    -0.8702 H       
  32 H32           -1.2052    -2.8420     0.8929 H       
  33 H33           -1.6755    -4.8110    -0.3755 H       
  34 H34           -3.1858    -4.4220    -2.7301 H       
  35 H35           -1.5416    -4.9213    -3.1945 H       
  36 H36           -5.1656    -8.3228    -1.0027 H       
  37 H37           -4.6565    -5.9645    -1.4966 H       
  38 H38           -0.7077    -7.1639    -2.6127 H       
  39 H39           -1.3336    -9.4878    -2.0909 H       
  40 H40            1.8784     3.9723    -0.5084 H       
  41 H41            0.1017     3.8650    -0.4919 H       
  42 H42            3.1271     4.2246     1.5585 H       
  43 H43            3.0999     5.0310     3.8849 H       
  44 H44            0.9578     5.3062     5.0676 H       
  45 H45           -1.1572     4.7759     3.9236 H       
  46 H46           -1.1305     3.9776     1.5944 H       
@<TRIPOS>BOND
   1    1    2 am
   2    1    6 am
   3    1   21 2
   4    2    3 1
   5    2    8 1
   6    3    4 2
   7    3    7 1
   8    4    5 1
   9    4   29 1
  10    5    6 am
  11    5   20 2
  12    6   22 1
  13    7    9 1
  14    8    9 1
  15    8   30 1
  16    8   31 1
  17    9   10 1
  18    9   32 1
  19   10   11 2
  20   10   12 am
  21   12   13 1
  22   12   33 1
  23   13   16 1
  24   13   34 1
  25   13   35 1
  26   14   15 ar
  27   14   19 ar
  28   14   36 1
  29   15   16 ar
  30   15   37 1
  31   16   17 ar
  32   17   18 ar
  33   17   38 1
  34   18   19 ar
  35   18   39 1
  36   22   23 1
  37   22   40 1
  38   22   41 1
  39   23   24 ar
  40   23   28 ar
  41   24   25 ar
  42   24   42 1
  43   25   26 ar
  44   25   43 1
  45   26   27 ar
  46   26   44 1
  47   27   28 ar
  48   27   45 1
  49   28   46 1

#	End of record

