#	Name: ASD02038902
#	Creating user name:	WinNT
#	Creation time:	15. 06. 2019 20:17

#	Modifying user name:	WinNT
#	Modification time:	15. 06. 2019 20:17

#	Program:	/corina/corina34_cracker 3.40 0067  02.08.2006

@<TRIPOS>MOLECULE
ASD02038902
  68   70    0    0    0
SMALL
NO_CHARGES


@<TRIPOS>ATOM
   1 N1             0.4237     1.5955    -0.3347 N.am    
   2 C2             0.5256     0.1334    -0.4502 C.3     
   3 C3             1.9807    -0.1947    -0.8459 C.3     
   4 C4             2.4747     1.1307    -1.4835 C.3     
   5 C5             1.7460     2.1850    -0.6134 C.3     
   6 C6            -0.6945     2.2834    -0.0303 C.2     
   7 O7            -1.7539     1.6998     0.0868 O.2     
   8 O8            -0.6379     3.6172     0.1442 O.3     
   9 C9             0.1918    -0.5191     0.8928 C.3     
  10 C10            1.0723     0.0647     1.9676 C.ar    
  11 C11            0.6808     1.2099     2.6354 C.ar    
  12 C12            1.4884     1.7455     3.6212 C.ar    
  13 C13            2.6874     1.1355     3.9395 C.ar    
  14 C14            3.0785    -0.0103     3.2723 C.ar    
  15 C15            2.2688    -0.5483     2.2895 C.ar    
  16 C16           -0.4193    -0.3638    -1.5137 C.2     
  17 N17           -0.6345     0.3727    -2.6217 N.am    
  18 O18           -0.9860    -1.4267    -1.3725 O.2     
  19 C19           -0.9838    -0.9850    -4.6025 C.2     
  20 C20           -1.6306    -0.0582    -3.6057 C.3     
  21 C21           -2.1896     1.1652    -4.3349 C.3     
  22 C22           -2.8532     2.1024    -3.3239 C.3     
  23 O23            0.1889    -1.2576    -4.5014 O.2     
  24 O24           -1.7105    -1.5077    -5.6027 O.3     
  25 C25           -1.0218    -2.3923    -6.5255 C.3     
  26 O26           -1.1085     1.8645    -5.0060 O.3     
  27 C27           -1.4176     2.5279    -6.1312 C.2     
  28 O28           -2.5539     2.5243    -6.5418 O.2     
  29 C29           -0.3473     3.2771    -6.8824 C.3     
  30 C30           -1.8811     4.2928     0.4704 C.3     
  31 C31           -1.6243     5.7694     0.6273 C.ar    
  32 C32           -1.7245     6.6084    -0.4668 C.ar    
  33 C33           -1.4888     7.9629    -0.3228 C.ar    
  34 C34           -1.1535     8.4785     0.9152 C.ar    
  35 C35           -1.0543     7.6395     2.0094 C.ar    
  36 C36           -1.2941     6.2857     1.8663 C.ar    
  37 H37            2.5731    -0.4433     0.0347 H       
  38 H38            2.0090    -1.0064    -1.5728 H       
  39 H39            3.5564     1.2289    -1.3921 H       
  40 H40            2.1642     1.2023    -2.5259 H       
  41 H41            1.6363     3.1200    -1.1629 H       
  42 H42            2.2905     2.3518     0.3159 H       
  43 H43           -0.8536    -0.3317     1.1380 H       
  44 H44            0.3626    -1.5936     0.8271 H       
  45 H45           -0.2559     1.6865     2.3867 H       
  46 H46            1.1829     2.6406     4.1424 H       
  47 H47            3.3187     1.5543     4.7091 H       
  48 H48            4.0154    -0.4867     3.5207 H       
  49 H49            2.5726    -1.4455     1.7708 H       
  50 H50           -0.1298     1.1882    -2.7676 H       
  51 H51           -2.4414    -0.5800    -3.0973 H       
  52 H52           -2.9267     0.8441    -5.0709 H       
  53 H53           -3.3324     2.9265    -3.8524 H       
  54 H54           -3.6020     1.5515    -2.7548 H       
  55 H55           -2.0980     2.4970    -2.6441 H       
  56 H56           -1.7223    -2.7438    -7.2830 H       
  57 H57           -0.2068    -1.8519    -7.0070 H       
  58 H58           -0.6193    -3.2453    -5.9791 H       
  59 H59            0.6053     3.1662    -6.3645 H       
  60 H60           -0.2615     2.8737    -7.8913 H       
  61 H61           -0.6117     4.3332    -6.9347 H       
  62 H62           -2.6027     4.1326    -0.3308 H       
  63 H63           -2.2786     3.8920     1.4028 H       
  64 H64           -1.9864     6.2057    -1.4340 H       
  65 H65           -1.5664     8.6184    -1.1777 H       
  66 H66           -0.9687     9.5366     1.0275 H       
  67 H67           -0.7920     8.0423     2.9765 H       
  68 H68           -1.2202     5.6308     2.7219 H       
@<TRIPOS>BOND
   1    1    2 1
   2    1    5 1
   3    1    6 am
   4    2    3 1
   5    2    9 1
   6    2   16 1
   7    3    4 1
   8    3   37 1
   9    3   38 1
  10    4    5 1
  11    4   39 1
  12    4   40 1
  13    5   41 1
  14    5   42 1
  15    6    7 2
  16    6    8 1
  17    8   30 1
  18    9   10 1
  19    9   43 1
  20    9   44 1
  21   10   11 ar
  22   10   15 ar
  23   11   12 ar
  24   11   45 1
  25   12   13 ar
  26   12   46 1
  27   13   14 ar
  28   13   47 1
  29   14   15 ar
  30   14   48 1
  31   15   49 1
  32   16   17 am
  33   16   18 2
  34   17   20 1
  35   17   50 1
  36   19   23 2
  37   19   24 1
  38   19   20 1
  39   20   21 1
  40   20   51 1
  41   21   22 1
  42   21   26 1
  43   21   52 1
  44   22   53 1
  45   22   54 1
  46   22   55 1
  47   24   25 1
  48   25   56 1
  49   25   57 1
  50   25   58 1
  51   26   27 1
  52   27   28 2
  53   27   29 1
  54   29   59 1
  55   29   60 1
  56   29   61 1
  57   30   31 1
  58   30   62 1
  59   30   63 1
  60   31   32 ar
  61   31   36 ar
  62   32   33 ar
  63   32   64 1
  64   33   34 ar
  65   33   65 1
  66   34   35 ar
  67   34   66 1
  68   35   36 ar
  69   35   67 1
  70   36   68 1

#	End of record

