#	Name: ASD01915566
#	Creating user name:	WinNT
#	Creation time:	15. 06. 2019 20:05

#	Modifying user name:	WinNT
#	Modification time:	15. 06. 2019 20:05

#	Program:	/corina/corina34_cracker 3.40 0067  02.08.2006

@<TRIPOS>MOLECULE
ASD01915566
  52   55    0    0    0
SMALL
NO_CHARGES


@<TRIPOS>ATOM
   1 C1            -0.0735     1.8580     0.0016 C.2     
   2 N2            -0.0776     0.5771    -0.5038 N.pl3   
   3 C3            -1.3292    -0.0787    -0.9015 C.3     
   4 C4            -2.4733     0.4513    -0.0390 C.3     
   5 N5            -2.4736     1.9068     0.0606 N.am    
   6 C6            -1.3226     2.6075     0.2027 C.2     
   7 C7             1.2302     2.1875     0.2454 C.2     
   8 C8             1.9662     1.0538    -0.1247 C.2     
   9 N9             1.1215     0.1446    -0.5523 N.2     
  10 C10            3.4638     0.9049    -0.0461 C.3     
  11 O11            4.0357     2.1086     0.4697 O.3     
  12 C12            5.3876     2.1408     0.6049 C.ar    
  13 O13           -1.3225     3.7914     0.4818 O.2     
  14 C14            6.0096     3.2780     1.0996 C.ar    
  15 C15            6.1476     1.0346     0.2537 C.ar    
  16 C16            7.5216     1.0698     0.3920 C.ar    
  17 C17            8.1396     2.2064     0.8799 C.ar    
  18 C18            7.3839     3.3082     1.2360 C.ar    
  19 C19           -3.6852     2.5921     0.0078 C.ar    
  20 C20           -4.2286     2.9365    -1.2246 C.ar    
  21 C21           -5.4329     3.6172    -1.2626 C.ar    
  22 C22           -6.0544     3.9312    -0.0618 C.ar    
  23 C23           -5.4574     3.5580     1.1264 C.ar    
  24 N24           -4.3114     2.9048     1.1316 N.ar    
  25 C25           -6.1267     3.8963     2.4335 C.3     
  26 C26           -6.3681     2.6125     3.2301 C.3     
  27 C27           -5.0246     2.0092     3.6446 C.3     
  28 C28           -7.1898     2.9348     4.4799 C.3     
  29 H29           -1.5348     0.1353    -1.9503 H       
  30 H30           -1.2362    -1.1556    -0.7609 H       
  31 H31           -3.4199     0.1278    -0.4720 H       
  32 H32           -2.3841     0.0298     0.9622 H       
  33 H33            1.6106     3.1191     0.6376 H       
  34 H34            3.7121     0.0731     0.6131 H       
  35 H35            3.8624     0.7109    -1.0418 H       
  36 H36            5.4198     4.1390     1.3775 H       
  37 H37            5.6653     0.1464    -0.1271 H       
  38 H38            8.1136     0.2088     0.1191 H       
  39 H39            9.2139     2.2320     0.9873 H       
  40 H40            7.8689     4.1950     1.6165 H       
  41 H41           -3.7177     2.6765    -2.1399 H       
  42 H42           -5.8790     3.8981    -2.2052 H       
  43 H43           -6.9948     4.4621    -0.0567 H       
  44 H44           -5.4854     4.5650     3.0077 H       
  45 H45           -7.0801     4.3868     2.2372 H       
  46 H46           -6.9120     1.8982     2.6120 H       
  47 H47           -5.1956     1.1722     4.3216 H       
  48 H48           -4.4953     1.6579     2.7589 H       
  49 H49           -4.4258     2.7678     4.1487 H       
  50 H50           -8.1470     3.3646     4.1846 H       
  51 H51           -7.3618     2.0202     5.0474 H       
  52 H52           -6.6460     3.6491     5.0980 H       
@<TRIPOS>BOND
   1    1    2 1
   2    1    7 2
   3    1    6 1
   4    2    3 1
   5    2    9 1
   6    3    4 1
   7    3   29 1
   8    3   30 1
   9    4    5 1
  10    4   31 1
  11    4   32 1
  12    5    6 am
  13    5   19 1
  14    6   13 2
  15    7    8 1
  16    7   33 1
  17    8    9 2
  18    8   10 1
  19   10   11 1
  20   10   34 1
  21   10   35 1
  22   11   12 1
  23   12   14 ar
  24   12   15 ar
  25   14   18 ar
  26   14   36 1
  27   15   16 ar
  28   15   37 1
  29   16   17 ar
  30   16   38 1
  31   17   18 ar
  32   17   39 1
  33   18   40 1
  34   19   20 ar
  35   19   24 ar
  36   20   21 ar
  37   20   41 1
  38   21   22 ar
  39   21   42 1
  40   22   23 ar
  41   22   43 1
  42   23   24 ar
  43   23   25 1
  44   25   26 1
  45   25   44 1
  46   25   45 1
  47   26   27 1
  48   26   28 1
  49   26   46 1
  50   27   47 1
  51   27   48 1
  52   27   49 1
  53   28   50 1
  54   28   51 1
  55   28   52 1

#	End of record

