#	Name: ASD00740009
#	Creating user name:	WinNT
#	Creation time:	15. 06. 2019 18:37

#	Modifying user name:	WinNT
#	Modification time:	15. 06. 2019 18:37

#	Program:	/corina/corina34_cracker 3.40 0067  02.08.2006

@<TRIPOS>MOLECULE
ASD00740009
  76   80    0    0    0
SMALL
NO_CHARGES


@<TRIPOS>ATOM
   1 C1            -0.0172     1.4036    -0.0562 C.ar    
   2 C2            -0.0632     0.1327     0.5513 C.ar    
   3 C3            -1.2874    -0.5790     0.5853 C.ar    
   4 C4            -2.4393    -0.0019     0.0103 C.ar    
   5 C5            -2.3555     1.2424    -0.5740 C.ar    
   6 C6            -1.1502     1.9385    -0.5996 C.ar    
   7 C7             1.0834    -0.4424     1.1237 C.ar    
   8 C8             1.0035    -1.6722     1.7020 C.ar    
   9 C9            -0.2010    -2.3721     1.7349 C.ar    
  10 C10           -1.3320    -1.8454     1.1899 C.ar    
  11 N11           -3.6579    -0.6889     0.0332 N.am    
  12 C12           -4.8142    -0.0064     0.1500 C.2     
  13 N13           -5.9919    -0.6550     0.0562 N.am    
  14 C14           -7.1884     0.0512     0.1770 C.2     
  15 N15           -8.4428    -0.4713     0.1037 N.pl3   
  16 N16           -9.3542     0.5783     0.2768 N.2     
  17 C17           -8.6802     1.6871     0.4473 C.2     
  18 C18           -7.3156     1.3887     0.3958 C.2     
  19 C19           -8.7653    -1.8188    -0.1077 C.ar    
  20 C20           -9.8780    -2.3731     0.5108 C.ar    
  21 C21          -10.1934    -3.7011     0.3001 C.ar    
  22 C22           -9.4021    -4.4787    -0.5253 C.ar    
  23 C23           -8.2933    -3.9295    -1.1427 C.ar    
  24 C24           -7.9760    -2.6006    -0.9405 C.ar    
  25 C25           -9.2750     3.0540     0.6682 C.3     
  26 C26           -9.1442     3.8803    -0.6128 C.3     
  27 C27          -10.7536     2.9135     1.0357 C.3     
  28 C28           -8.5312     3.7561     1.8061 C.3     
  29 O29            1.1507     2.0978    -0.0960 O.3     
  30 C30            1.1225     3.3793    -0.7275 C.3     
  31 C31            2.5181     4.0044    -0.6756 C.3     
  32 N32            3.4466     3.1964    -1.4773 N.3     
  33 C33            4.7336     3.8864    -1.6475 C.3     
  34 C34            5.6888     2.9863    -2.4357 C.3     
  35 O35            5.0886     2.6434    -3.6877 O.3     
  36 C36            3.8338     1.9694    -3.5593 C.3     
  37 C37            2.8598     2.8592    -2.7824 C.3     
  38 O38           -4.7949     1.1945     0.3400 O.2     
  39 C39           -9.7486    -5.9277    -0.7522 C.3     
  40 H40           -3.2365     1.6851    -1.0148 H       
  41 H41           -1.1086     2.9129    -1.0635 H       
  42 H42            2.0238     0.0883     1.1049 H       
  43 H43            1.8867    -2.1119     2.1414 H       
  44 H44           -0.2378    -3.3466     2.1991 H       
  45 H45           -2.2588    -2.3988     1.2228 H       
  46 H46           -3.6706    -1.6564    -0.0350 H       
  47 H47           -6.0074    -1.6129    -0.0954 H       
  48 H48           -6.5059     2.0951     0.5034 H       
  49 H49          -10.4960    -1.7665     1.1561 H       
  50 H50          -11.0588    -4.1329     0.7809 H       
  51 H51           -7.6772    -4.5393    -1.7868 H       
  52 H52           -7.1098    -2.1722    -1.4229 H       
  53 H53           -9.6741     3.3801    -1.4235 H       
  54 H54           -9.5744     4.8690    -0.4530 H       
  55 H55           -8.0908     3.9804    -0.8746 H       
  56 H56          -10.8468     2.3249     1.9484 H       
  57 H57          -11.1838     3.9022     1.1955 H       
  58 H58          -11.2835     2.4134     0.2251 H       
  59 H59           -7.4778     3.8561     1.5443 H       
  60 H60           -8.9614     4.7447     1.9659 H       
  61 H61           -8.6244     3.1674     2.7187 H       
  62 H62            0.8138     3.2656    -1.7667 H       
  63 H63            0.4155     4.0253    -0.2071 H       
  64 H64            2.4778     5.0170    -1.0769 H       
  65 H65            2.8635     4.0365     0.3578 H       
  66 H66            4.5781     4.8175    -2.1923 H       
  67 H67            5.1623     4.1036    -0.6691 H       
  68 H68            6.6246     3.5161    -2.6136 H       
  69 H69            5.8865     2.0782    -1.8661 H       
  70 H70            3.4281     1.7638    -4.5498 H       
  71 H71            3.9776     1.0318    -3.0223 H       
  72 H72            1.9207     2.3266    -2.6326 H       
  73 H73            2.6744     3.7739    -3.3454 H       
  74 H74          -10.4123    -6.0121    -1.6127 H       
  75 H75           -8.8365    -6.4942    -0.9400 H       
  76 H76          -10.2475    -6.3247     0.1318 H       
@<TRIPOS>BOND
   1    1    2 ar
   2    1   29 1
   3    1    6 ar
   4    2    3 ar
   5    2    7 ar
   6    3    4 ar
   7    3   10 ar
   8    4    5 ar
   9    4   11 1
  10    5    6 ar
  11    5   40 1
  12    6   41 1
  13    7    8 ar
  14    7   42 1
  15    8    9 ar
  16    8   43 1
  17    9   10 ar
  18    9   44 1
  19   10   45 1
  20   11   12 am
  21   11   46 1
  22   12   13 am
  23   12   38 2
  24   13   14 1
  25   13   47 1
  26   14   15 1
  27   14   18 2
  28   15   16 1
  29   15   19 1
  30   16   17 2
  31   17   18 1
  32   17   25 1
  33   18   48 1
  34   19   20 ar
  35   19   24 ar
  36   20   21 ar
  37   20   49 1
  38   21   22 ar
  39   21   50 1
  40   22   23 ar
  41   22   39 1
  42   23   24 ar
  43   23   51 1
  44   24   52 1
  45   25   26 1
  46   25   27 1
  47   25   28 1
  48   26   53 1
  49   26   54 1
  50   26   55 1
  51   27   56 1
  52   27   57 1
  53   27   58 1
  54   28   59 1
  55   28   60 1
  56   28   61 1
  57   29   30 1
  58   30   31 1
  59   30   62 1
  60   30   63 1
  61   31   32 1
  62   31   64 1
  63   31   65 1
  64   32   33 1
  65   32   37 1
  66   33   34 1
  67   33   66 1
  68   33   67 1
  69   34   35 1
  70   34   68 1
  71   34   69 1
  72   35   36 1
  73   36   37 1
  74   36   70 1
  75   36   71 1
  76   37   72 1
  77   37   73 1
  78   39   74 1
  79   39   75 1
  80   39   76 1

#	End of record

