#	Name: ASD01915378
#	Creating user name:	WinNT
#	Creation time:	15. 06. 2019 20:05

#	Modifying user name:	WinNT
#	Modification time:	15. 06. 2019 20:05

#	Program:	/corina/corina34_cracker 3.40 0067  02.08.2006

@<TRIPOS>MOLECULE
ASD01915378
  47   50    0    0    0
SMALL
NO_CHARGES


@<TRIPOS>ATOM
   1 C1            -0.2630     1.3127     1.1346 C.ar    
   2 C2            -0.2545    -0.0222     1.5321 C.ar    
   3 N3             0.8464    -0.7535     1.4155 N.ar    
   4 C4             1.9608    -0.2506     0.9249 C.ar    
   5 C5             2.0232     1.0675     0.5112 C.ar    
   6 C6             0.8943     1.8674     0.6153 C.ar    
   7 C7             3.3050     1.6297    -0.0472 C.3     
   8 N8             4.4369     0.7760     0.3421 N.am    
   9 C9             5.0640     0.2368    -0.8783 C.3     
  10 C10            4.6919     1.2451    -1.9940 C.3     
  11 C11            3.2466     1.6381    -1.5893 C.3     
  12 C12            4.8356     0.5280     1.6054 C.2     
  13 O13            4.3206     1.1214     2.5328 O.2     
  14 C14            5.8994    -0.4659     1.8632 C.ar    
  15 C15           -1.4863    -0.6313     2.0910 C.ar    
  16 C16           -1.4869    -1.9658     2.4911 C.ar    
  17 C17           -2.6369    -2.5274     3.0113 C.ar    
  18 C18           -3.7865    -1.7665     3.1349 C.ar    
  19 C19           -3.7906    -0.4412     2.7384 C.ar    
  20 C20           -2.6456     0.1312     2.2229 C.ar    
  21 Cl21          -2.6404    -4.1902     3.5101 Cl      
  22 C22            0.9275     3.3079     0.1740 C.3     
  23 C23            6.3391    -1.3184     0.8436 C.ar    
  24 C24            7.3378    -2.2306     1.1367 C.ar    
  25 C25            7.8644    -2.2705     2.4149 C.ar    
  26 N26            7.4299    -1.4546     3.3565 N.ar    
  27 C27            6.4862    -0.5659     3.1254 C.ar    
  28 H28           -1.1611     1.9056     1.2260 H       
  29 H29            2.8376    -0.8761     0.8449 H       
  30 H30            3.4590     2.6423     0.3258 H       
  31 H31            6.1462     0.1862    -0.7582 H       
  32 H32            4.6605    -0.7493    -1.1083 H       
  33 H33            5.3527     2.1117    -1.9736 H       
  34 H34            4.7071     0.7671    -2.9735 H       
  35 H35            2.5305     0.9007    -1.9521 H       
  36 H36            2.9991     2.6326    -1.9604 H       
  37 H37           -0.5903    -2.5600     2.3945 H       
  38 H38           -4.6836    -2.2090     3.5420 H       
  39 H39           -4.6905     0.1478     2.8364 H       
  40 H40           -2.6504     1.1660     1.9138 H       
  41 H41            0.6478     3.3723    -0.8776 H       
  42 H42            0.2251     3.8877     0.7729 H       
  43 H43            1.9335     3.7057     0.3074 H       
  44 H44            5.9099    -1.2658    -0.1460 H       
  45 H45            7.7018    -2.9045     0.3752 H       
  46 H46            8.6438    -2.9814     2.6463 H       
  47 H47            6.1571     0.0850     3.9219 H       
@<TRIPOS>BOND
   1    1    2 ar
   2    1    6 ar
   3    1   28 1
   4    2    3 ar
   5    2   15 1
   6    3    4 ar
   7    4    5 ar
   8    4   29 1
   9    5    6 ar
  10    5    7 1
  11    6   22 1
  12    7    8 1
  13    7   11 1
  14    7   30 1
  15    8    9 1
  16    8   12 am
  17    9   10 1
  18    9   31 1
  19    9   32 1
  20   10   11 1
  21   10   33 1
  22   10   34 1
  23   11   35 1
  24   11   36 1
  25   12   13 2
  26   12   14 1
  27   14   23 ar
  28   14   27 ar
  29   15   16 ar
  30   15   20 ar
  31   16   17 ar
  32   16   37 1
  33   17   18 ar
  34   17   21 1
  35   18   19 ar
  36   18   38 1
  37   19   20 ar
  38   19   39 1
  39   20   40 1
  40   22   41 1
  41   22   42 1
  42   22   43 1
  43   23   24 ar
  44   23   44 1
  45   24   25 ar
  46   24   45 1
  47   25   26 ar
  48   25   46 1
  49   26   27 ar
  50   27   47 1

#	End of record

