#	Name: ASD01940676
#	Creating user name:	WinNT
#	Creation time:	15. 06. 2019 20:13

#	Modifying user name:	WinNT
#	Modification time:	15. 06. 2019 20:13

#	Program:	/corina/corina34_cracker 3.40 0067  02.08.2006

@<TRIPOS>MOLECULE
ASD01940676
  43   45    0    0    0
SMALL
NO_CHARGES


@<TRIPOS>ATOM
   1 C1             0.6170     0.4234    -1.4328 C.ar    
   2 C2            -0.0626    -0.0985    -0.3475 C.ar    
   3 C3             0.4700     0.0114     0.9256 C.ar    
   4 C4             1.6871     0.6453     1.1181 C.ar    
   5 C5             2.3742     1.1709     0.0319 C.ar    
   6 C6             1.8358     1.0589    -1.2490 C.ar    
   7 N7             2.5251     1.5871    -2.3488 N.am    
   8 S8             1.6896     2.0773    -3.6920 S.o2    
   9 C9             0.7629     3.5362    -3.1410 C.3     
  10 O10            2.7015     2.4497    -4.6176 O.2     
  11 O11            0.8054     0.9996    -3.9674 O.2     
  12 F12           -0.1984    -0.4999     1.9825 F       
  13 F13            2.2046     0.7522     2.3615 F       
  14 N14            3.6053     1.8131     0.2231 N.pl3   
  15 C15            4.7993     1.1051     0.0436 C.ar    
  16 C16            6.0138     1.6991     0.3634 C.ar    
  17 C17            4.7694    -0.1933    -0.4487 C.ar    
  18 C18            5.9471    -0.8920    -0.6253 C.ar    
  19 C19            7.1619    -0.2961    -0.3110 C.ar    
  20 C20            7.1914     1.0011     0.1860 C.ar    
  21 C21            6.0456     3.1057     0.9033 C.3     
  22 C22           -0.2151     4.1681    -4.1335 C.3     
  23 C23           -0.7450     3.3788    -2.9348 C.3     
  24 S24            8.6649    -1.1879    -0.5358 S.3     
  25 C25            8.0986    -2.7863    -1.1798 C.3     
  26 H26            0.2003     0.3321    -2.4250 H       
  27 H27           -1.0116    -0.5930    -0.4934 H       
  28 H28            3.4916     1.6655    -2.3234 H       
  29 H29            1.2965     4.2046    -2.4654 H       
  30 H30            3.6298     2.7482     0.4797 H       
  31 H31            3.8249    -0.6565    -0.6930 H       
  32 H32            5.9238    -1.9018    -1.0075 H       
  33 H33            8.1358     1.4645     0.4304 H       
  34 H34            5.9802     3.0789     1.9910 H       
  35 H35            6.9774     3.5876     0.6071 H       
  36 H36            5.2023     3.6679     0.5024 H       
  37 H37           -0.3251     5.2523    -4.1106 H       
  38 H38           -0.3016     3.7073    -5.1175 H       
  39 H39           -1.1801     2.3987    -3.1301 H       
  40 H40           -1.2036     3.9437    -2.1232 H       
  41 H41            7.4369    -3.2571    -0.4528 H       
  42 H42            7.5598    -2.6312    -2.1145 H       
  43 H43            8.9589    -3.4312    -1.3591 H       
@<TRIPOS>BOND
   1    1    2 ar
   2    1    6 ar
   3    1   26 1
   4    2    3 ar
   5    2   27 1
   6    3    4 ar
   7    3   12 1
   8    4    5 ar
   9    4   13 1
  10    5    6 ar
  11    5   14 1
  12    6    7 1
  13    7    8 am
  14    7   28 1
  15    8    9 1
  16    8   10 2
  17    8   11 2
  18    9   22 1
  19    9   23 1
  20    9   29 1
  21   14   15 1
  22   14   30 1
  23   15   16 ar
  24   15   17 ar
  25   16   21 1
  26   16   20 ar
  27   17   18 ar
  28   17   31 1
  29   18   19 ar
  30   18   32 1
  31   19   20 ar
  32   19   24 1
  33   20   33 1
  34   21   34 1
  35   21   35 1
  36   21   36 1
  37   22   23 1
  38   22   37 1
  39   22   38 1
  40   23   39 1
  41   23   40 1
  42   24   25 1
  43   25   41 1
  44   25   42 1
  45   25   43 1

#	End of record

