#	Name: ASD04230171
#	Creating user name:	WinNT
#	Creation time:	15. 06. 2019 20:48

#	Modifying user name:	WinNT
#	Modification time:	15. 06. 2019 20:48

#	Program:	/corina/corina34_cracker 3.40 0067  02.08.2006

@<TRIPOS>MOLECULE
ASD04230171
  55   59    0    0    0
SMALL
NO_CHARGES


@<TRIPOS>ATOM
   1 C1             0.0769     1.3679     0.8488 C.2     
   2 C2             0.0736    -0.0868     0.6269 C.ar    
   3 C3            -1.1610    -0.7663     0.5519 C.ar    
   4 C4            -2.3782    -0.0587     0.6878 C.ar    
   5 C5            -2.3660     1.3413     0.9008 C.2     
   6 C6            -1.1616     2.0444     0.9870 C.2     
   7 C7             1.2600    -0.8002     0.4909 C.ar    
   8 C8             1.2304    -2.1696     0.2825 C.ar    
   9 C9             0.0349    -2.8511     0.2063 C.ar    
  10 C10           -1.1769    -2.1623     0.3392 C.ar    
  11 C11           -2.4208    -2.8362     0.2657 C.ar    
  12 C12           -3.6034    -2.1185     0.4026 C.ar    
  13 C13           -3.5899    -0.7565     0.6090 C.ar    
  14 O14            1.1291     1.9816     0.9178 O.2     
  15 S15           -2.4689    -4.5776     0.0014 S.3     
  16 C16           -4.1994    -4.8647     0.1673 C.ar    
  17 C17           -5.0157    -4.8673    -0.9573 C.ar    
  18 C18           -6.3714    -5.0925    -0.8240 C.ar    
  19 C19           -6.9175    -5.3150     0.4280 C.ar    
  20 C20           -6.1073    -5.3130     1.5498 C.ar    
  21 C21           -4.7498    -5.0946     1.4224 C.ar    
  22 Br22          -8.7749    -5.6218     0.6062 Br      
  23 C23           -1.1784     3.4600     1.2028 C.1     
  24 N24           -1.1918     4.5829     1.3740 N.1     
  25 N25           -3.5560     2.0172     1.0308 N.3     
  26 C26           -3.6420     2.6853     2.3363 C.3     
  27 C27           -4.9769     3.4251     2.4436 C.3     
  28 C28           -5.0665     4.1210     3.8032 C.3     
  29 C29           -6.3814     4.8496     3.9089 C.ar    
  30 C30           -7.4896     4.2045     4.4253 C.ar    
  31 C31           -8.6957     4.8729     4.5222 C.ar    
  32 C32           -8.7935     6.1866     4.1032 C.ar    
  33 C33           -7.6851     6.8320     3.5876 C.ar    
  34 C34           -6.4779     6.1649     3.4947 C.ar    
  35 H35            2.2074    -0.2848     0.5475 H       
  36 H36            2.1588    -2.7115     0.1779 H       
  37 H37            0.0327    -3.9187     0.0430 H       
  38 H38           -4.5488    -2.6375     0.3458 H       
  39 H39           -4.5226    -0.2220     0.7122 H       
  40 H40           -4.5902    -4.6930    -1.9345 H       
  41 H41           -7.0064    -5.0946    -1.6976 H       
  42 H42           -6.5364    -5.4870     2.5255 H       
  43 H43           -4.1179    -5.0935     2.2982 H       
  44 H44           -3.6811     2.6771     0.2779 H       
  45 H45           -3.5739     1.9416     3.1302 H       
  46 H46           -2.8229     3.3977     2.4345 H       
  47 H47           -5.0450     4.1688     1.6496 H       
  48 H48           -5.7961     2.7127     2.3454 H       
  49 H49           -4.9984     3.3773     4.5972 H       
  50 H50           -4.2474     4.8333     3.9015 H       
  51 H51           -7.4132     3.1782     4.7527 H       
  52 H52           -9.5617     4.3687     4.9250 H       
  53 H53           -9.7360     6.7086     4.1782 H       
  54 H54           -7.7617     7.8582     3.2599 H       
  55 H55           -5.6110     6.6703     3.0954 H       
@<TRIPOS>BOND
   1    1    2 1
   2    1   14 2
   3    1    6 1
   4    2    3 ar
   5    2    7 ar
   6    3    4 ar
   7    3   10 ar
   8    4    5 1
   9    4   13 ar
  10    5    6 2
  11    5   25 1
  12    6   23 1
  13    7    8 ar
  14    7   35 1
  15    8    9 ar
  16    8   36 1
  17    9   10 ar
  18    9   37 1
  19   10   11 ar
  20   11   12 ar
  21   11   15 1
  22   12   13 ar
  23   12   38 1
  24   13   39 1
  25   15   16 1
  26   16   17 ar
  27   16   21 ar
  28   17   18 ar
  29   17   40 1
  30   18   19 ar
  31   18   41 1
  32   19   20 ar
  33   19   22 1
  34   20   21 ar
  35   20   42 1
  36   21   43 1
  37   23   24 3
  38   25   26 1
  39   25   44 1
  40   26   27 1
  41   26   45 1
  42   26   46 1
  43   27   28 1
  44   27   47 1
  45   27   48 1
  46   28   29 1
  47   28   49 1
  48   28   50 1
  49   29   30 ar
  50   29   34 ar
  51   30   31 ar
  52   30   51 1
  53   31   32 ar
  54   31   52 1
  55   32   33 ar
  56   32   53 1
  57   33   34 ar
  58   33   54 1
  59   34   55 1

#	End of record

