#	Name: ASD04882540
#	Creating user name:	WinNT
#	Creation time:	15. 06. 2019 20:55

#	Modifying user name:	WinNT
#	Modification time:	15. 06. 2019 20:55

#	Program:	/corina/corina34_cracker 3.40 0067  02.08.2006

@<TRIPOS>MOLECULE
ASD04882540
  79   84    0    0    0
SMALL
NO_CHARGES


@<TRIPOS>ATOM
   1 C1            -0.0215     1.4012    -0.0092 C.ar    
   2 C2            -0.0115     0.0036    -0.0052 C.ar    
   3 C3            -1.2094    -0.7019    -0.0160 C.ar    
   4 C4            -2.4097    -0.0268    -0.0310 C.ar    
   5 C5            -2.4267     1.3708    -0.0350 C.ar    
   6 C6            -1.2239     2.0825    -0.0185 C.ar    
   7 N7             1.1998    -0.6830     0.0090 N.3     
   8 C8             1.3075    -1.5362     1.2007 C.3     
   9 C9             1.3717    -1.4731    -1.2181 C.3     
  10 C10            2.7456    -2.1474    -1.1992 C.3     
  11 N11            2.8533    -3.0005    -0.0075 N.3     
  12 C12            2.6814    -2.2105     1.2196 C.3     
  13 C13           -3.7126     2.0937    -0.0516 C.2     
  14 O14           -3.7265     3.3096    -0.0551 O.2     
  15 N15           -4.8720     1.4065    -0.0628 N.am    
  16 N16            1.1866     2.1110     0.0021 N.am    
  17 C17            4.0684    -3.6893     0.0068 C.ar    
  18 C18            1.2296     3.3600     0.5068 C.2     
  19 C19            2.5162     4.0732     0.6000 C.2     
  20 C20            4.0811    -5.0782     0.0108 C.ar    
  21 O21            0.2069     3.8985     0.8853 O.2     
  22 N22            3.7329     3.5991     0.2178 N.2     
  23 C23            4.6244     4.5145     0.4539 C.2     
  24 O24            4.0245     5.5887     0.9859 O.3     
  25 C25            2.7098     5.3324     1.0790 C.2     
  26 O26           -6.1062     2.1004    -0.0787 O.3     
  27 C27           -7.2525     1.2473    -0.0893 C.3     
  28 C28           -8.5228     2.1000    -0.1061 C.3     
  29 C29            6.0998     4.3882     0.1743 C.3     
  30 C30            6.7243     5.3956    -0.7932 C.3     
  31 C31            7.0165     5.4920     0.7055 C.3     
  32 C32            5.2845    -5.7562     0.0244 C.ar    
  33 C33            6.4754    -5.0538     0.0346 C.ar    
  34 C34            6.4663    -3.6708     0.0307 C.ar    
  35 C35            5.2669    -2.9867     0.0112 C.ar    
  36 C36            2.7836    -5.8445     0.0007 C.3     
  37 O37           -8.6595     2.8348     1.1270 O.3     
  38 C38           -9.7849     1.2019    -0.1207 C.3     
  39 O39          -10.7706     2.0699     0.4885 O.3     
  40 C40          -10.0459     2.8027     1.4907 C.3     
  41 C41          -10.2057     2.1138     2.8474 C.3     
  42 C42          -10.5882     4.2309     1.5759 C.3     
  43 H43           -1.1986    -1.7819    -0.0129 H       
  44 H44           -3.3385    -0.5778    -0.0400 H       
  45 H45           -1.2340     3.1625    -0.0213 H       
  46 H46            1.1893    -0.9264     2.0964 H       
  47 H47            0.5287    -2.2984     1.1739 H       
  48 H48            0.5937    -2.2346    -1.2724 H       
  49 H49            1.3004    -0.8173    -2.0858 H       
  50 H50            2.8638    -2.7572    -2.0949 H       
  51 H51            3.5244    -1.3852    -1.1724 H       
  52 H52            3.4594    -1.4490     1.2739 H       
  53 H53            2.7527    -2.8662     2.0873 H       
  54 H54           -4.8609     0.4366    -0.0600 H       
  55 H55            1.9919     1.7035    -0.3534 H       
  56 H56            1.9513     5.9965     1.4664 H       
  57 H57           -7.2272     0.6157    -0.9773 H       
  58 H58           -7.2473     0.6206     0.8025 H       
  59 H59           -8.5190     2.7776    -0.9599 H       
  60 H60            6.4908     3.3708     0.1632 H       
  61 H61            7.5264     5.0410    -1.4406 H       
  62 H62            6.0679     6.1497    -1.2275 H       
  63 H63            6.5524     6.3095     1.2572 H       
  64 H64            8.0108     5.2009     1.0442 H       
  65 H65            5.2951    -6.8361     0.0275 H       
  66 H66            7.4149    -5.5864     0.0460 H       
  67 H67            7.3983    -3.1252     0.0390 H       
  68 H68            5.2605    -1.9068     0.0078 H       
  69 H69            2.4804    -6.0321    -1.0294 H       
  70 H70            2.9184    -6.7941     0.5184 H       
  71 H71            2.0134    -5.2615     0.5057 H       
  72 H72          -10.0690     0.9446    -1.1411 H       
  73 H73           -9.6320     0.3042     0.4784 H       
  74 H74           -9.8377     1.0899     2.7805 H       
  75 H75           -9.6342     2.6568     3.6002 H       
  76 H76          -11.2589     2.1037     3.1280 H       
  77 H77          -11.6384     4.2040     1.8666 H       
  78 H78          -10.0199     4.7916     2.3180 H       
  79 H79          -10.4926     4.7144     0.6037 H       
@<TRIPOS>BOND
   1    1    2 ar
   2    1   16 1
   3    1    6 ar
   4    2    3 ar
   5    2    7 1
   6    3    4 ar
   7    3   43 1
   8    4    5 ar
   9    4   44 1
  10    5    6 ar
  11    5   13 1
  12    6   45 1
  13    7    8 1
  14    7    9 1
  15    8   12 1
  16    8   46 1
  17    8   47 1
  18    9   10 1
  19    9   48 1
  20    9   49 1
  21   10   11 1
  22   10   50 1
  23   10   51 1
  24   11   12 1
  25   11   17 1
  26   12   52 1
  27   12   53 1
  28   13   14 2
  29   13   15 am
  30   15   26 1
  31   15   54 1
  32   16   18 am
  33   16   55 1
  34   17   20 ar
  35   17   35 ar
  36   18   19 1
  37   18   21 2
  38   19   22 1
  39   19   25 2
  40   20   32 ar
  41   20   36 1
  42   22   23 2
  43   23   24 1
  44   23   29 1
  45   24   25 1
  46   25   56 1
  47   26   27 1
  48   27   28 1
  49   27   57 1
  50   27   58 1
  51   28   37 1
  52   28   38 1
  53   28   59 1
  54   29   30 1
  55   29   31 1
  56   29   60 1
  57   30   31 1
  58   30   61 1
  59   30   62 1
  60   31   63 1
  61   31   64 1
  62   32   33 ar
  63   32   65 1
  64   33   34 ar
  65   33   66 1
  66   34   35 ar
  67   34   67 1
  68   35   68 1
  69   36   69 1
  70   36   70 1
  71   36   71 1
  72   37   40 1
  73   38   39 1
  74   38   72 1
  75   38   73 1
  76   39   40 1
  77   40   41 1
  78   40   42 1
  79   41   74 1
  80   41   75 1
  81   41   76 1
  82   42   77 1
  83   42   78 1
  84   42   79 1

#	End of record

