#	Name: ASD09740083
#	Creating user name:	WinNT
#	Creation time:	15. 06. 2019 21:22

#	Modifying user name:	WinNT
#	Modification time:	15. 06. 2019 21:22

#	Program:	/corina/corina34_cracker 3.40 0067  02.08.2006

@<TRIPOS>MOLECULE
ASD09740083
  41   43    0    0    0
SMALL
NO_CHARGES


@<TRIPOS>ATOM
   1 O1            -0.0144     1.2085     0.0087 O.3     
   2 N2             0.0021    -0.0041     0.0020 N.2     
   3 C3             1.2411     1.6827    -0.0008 C.2     
   4 N4             2.0453     0.6365    -0.0141 N.2     
   5 C5             1.2345    -0.4420    -0.0121 C.2     
   6 C6             1.6625    -1.8640    -0.0231 C.ar    
   7 C7             1.6456     3.1046     0.0023 C.ar    
   8 C8             0.7215    -2.8965    -0.0197 C.ar    
   9 C9             3.0169    -2.2055    -0.0429 C.ar    
  10 C10            3.3712    -3.5396    -0.0525 C.ar    
  11 N11            2.4511    -4.4844    -0.0437 N.ar    
  12 C12            1.1623    -4.2046    -0.0302 C.ar    
  13 C13            2.9984     3.4486    -0.0092 C.ar    
  14 C14            3.3691     4.7772    -0.0062 C.ar    
  15 C15            2.4033     5.7681     0.0085 C.ar    
  16 C16            1.0610     5.4340     0.0204 C.ar    
  17 C17            0.6766     4.1088     0.0109 C.ar    
  18 C18            0.0161     6.5198     0.0375 C.3     
  19 C19           -0.3524     6.8956    -1.3991 C.3     
  20 C20           -1.4133     7.9980    -1.3818 C.3     
  21 C21           -1.6911     8.4610    -2.8134 C.3     
  22 C22           -2.7026     7.4553    -0.7620 C.3     
  23 H23           -0.3354    -2.6745    -0.0087 H       
  24 H24            3.7756    -1.4369    -0.0509 H       
  25 H25            4.4159    -3.8134    -0.0678 H       
  26 H26            0.4423    -5.0096    -0.0230 H       
  27 H27            3.7531     2.6762    -0.0200 H       
  28 H28            4.4154     5.0447    -0.0151 H       
  29 H29            2.6988     6.8069     0.0111 H       
  30 H30           -0.3717     3.8493     0.0202 H       
  31 H31           -0.8718     6.1615     0.5584 H       
  32 H32            0.4107     7.3958     0.5524 H       
  33 H33            0.5354     7.2540    -1.9201 H       
  34 H34           -0.7470     6.0197    -1.9140 H       
  35 H35           -1.0526     8.8401    -0.7912 H       
  36 H36           -2.0518     7.6188    -3.4040 H       
  37 H37           -2.4469     9.2463    -2.8010 H       
  38 H38           -0.7726     8.8475    -3.2549 H       
  39 H39           -3.4583     8.2407    -0.7497 H       
  40 H40           -3.0633     6.6132    -1.3526 H       
  41 H41           -2.5046     7.1255     0.2579 H       
@<TRIPOS>BOND
   1    1    2 1
   2    1    3 1
   3    2    5 2
   4    3    4 2
   5    3    7 1
   6    4    5 1
   7    5    6 1
   8    6    8 ar
   9    6    9 ar
  10    7   13 ar
  11    7   17 ar
  12    8   12 ar
  13    8   23 1
  14    9   10 ar
  15    9   24 1
  16   10   11 ar
  17   10   25 1
  18   11   12 ar
  19   12   26 1
  20   13   14 ar
  21   13   27 1
  22   14   15 ar
  23   14   28 1
  24   15   16 ar
  25   15   29 1
  26   16   17 ar
  27   16   18 1
  28   17   30 1
  29   18   19 1
  30   18   31 1
  31   18   32 1
  32   19   20 1
  33   19   33 1
  34   19   34 1
  35   20   21 1
  36   20   22 1
  37   20   35 1
  38   21   36 1
  39   21   37 1
  40   21   38 1
  41   22   39 1
  42   22   40 1
  43   22   41 1

#	End of record

