#	Name: ASD01140314
#	Creating user name:	WinNT
#	Creation time:	15. 06. 2019 19:00

#	Modifying user name:	WinNT
#	Modification time:	15. 06. 2019 19:00

#	Program:	/corina/corina34_cracker 3.40 0067  02.08.2006

@<TRIPOS>MOLECULE
ASD01140314
  59   62    0    0    0
SMALL
NO_CHARGES


@<TRIPOS>ATOM
   1 C1             0.0963     1.5706     0.2396 C.ar    
   2 C2             0.0465     0.1742     0.2330 C.ar    
   3 C3             1.2224    -0.5614     0.1542 C.ar    
   4 C4             2.4620     0.0871     0.0815 C.ar    
   5 C5             2.4941     1.4838     0.0654 C.ar    
   6 C6             1.3112     2.2125     0.1560 C.ar    
   7 C7             3.6700    -0.7457     0.0573 C.2     
   8 N8             4.7288    -0.5797    -0.6553 N.2     
   9 C9             4.8503     0.5264    -1.6121 C.3     
  10 C10            4.7465     1.8151    -0.8383 C.2     
  11 N11            3.6913     2.1916    -0.0738 N.pl3   
  12 C12            4.0041     3.3865     0.4974 C.2     
  13 C13            5.6725     2.8098    -0.7627 C.2     
  14 N14            5.1795     3.7593     0.0769 N.2     
  15 C15            3.7215     0.4475    -2.6419 C.3     
  16 C16            3.6712    -1.9176     0.9619 C.ar    
  17 C17            3.6451    -1.7351     2.3472 C.ar    
  18 C18            3.6924    -3.2091     0.4354 C.ar    
  19 C19            3.6929    -4.2972     1.2834 C.ar    
  20 C20            3.6723    -4.1113     2.6545 C.ar    
  21 C21            3.6458    -2.8347     3.1852 C.ar    
  22 C22           -1.2156    -0.4981     0.3078 C.1     
  23 C23           -2.2504    -1.0493     0.3691 C.1     
  24 F24            3.6196    -0.4879     2.8659 F       
  25 Si25          -3.9250    -1.9413     0.4684 Si      
  26 C26           -3.6500    -3.7837     0.4382 C.3     
  27 C27           -4.7879    -1.4681     2.0502 C.3     
  28 C28           -4.9792    -1.4469    -0.9860 C.3     
  29 C29            6.9675     2.8504    -1.4608 C.2     
  30 O30            7.2949     1.9333    -2.1881 O.2     
  31 O31            7.7904     3.9048    -1.2935 O.3     
  32 C32            9.0513     3.8774    -2.0130 C.3     
  33 C33            9.8444     5.1480    -1.7007 C.3     
  34 H34           -0.8161     2.1447     0.3056 H       
  35 H35            1.1807    -1.6406     0.1494 H       
  36 H36            1.3471     3.2919     0.1610 H       
  37 H37            5.8154     0.4746    -2.1160 H       
  38 H38            3.3800     3.9360     1.1866 H       
  39 H39            2.7600     0.5153    -2.1330 H       
  40 H40            3.8170     1.2712    -3.3494 H       
  41 H41            3.7833    -0.5001    -3.1770 H       
  42 H42            3.7082    -3.3569    -0.6343 H       
  43 H43            3.7090    -5.2973     0.8759 H       
  44 H44            3.6728    -4.9672     3.3130 H       
  45 H45            3.6298    -2.6964     4.2562 H       
  46 H46           -3.0332    -4.0729     1.2891 H       
  47 H47           -4.6107    -4.2954     0.4951 H       
  48 H48           -3.1451    -4.0605    -0.4873 H       
  49 H49           -4.9488    -0.3902     2.0679 H       
  50 H50           -5.7486    -1.9798     2.1072 H       
  51 H51           -4.1711    -1.7574     2.9011 H       
  52 H52           -4.4743    -1.7237    -1.9115 H       
  53 H53           -5.9399    -1.9586    -0.9290 H       
  54 H54           -5.1401    -0.3690    -0.9683 H       
  55 H55            9.6269     3.0048    -1.7044 H       
  56 H56            8.8573     3.8244    -3.0843 H       
  57 H57            9.2688     6.0207    -2.0093 H       
  58 H58           10.0384     5.2011    -0.6294 H       
  59 H59           10.7910     5.1275    -2.2408 H       
@<TRIPOS>BOND
   1    1    2 ar
   2    1    6 ar
   3    1   34 1
   4    2    3 ar
   5    2   22 1
   6    3    4 ar
   7    3   35 1
   8    4    5 ar
   9    4    7 1
  10    5    6 ar
  11    5   11 1
  12    6   36 1
  13    7    8 2
  14    7   16 1
  15    8    9 1
  16    9   10 1
  17    9   15 1
  18    9   37 1
  19   10   11 1
  20   10   13 2
  21   11   12 1
  22   12   14 2
  23   12   38 1
  24   13   14 1
  25   13   29 1
  26   15   39 1
  27   15   40 1
  28   15   41 1
  29   16   17 ar
  30   16   18 ar
  31   17   24 1
  32   17   21 ar
  33   18   19 ar
  34   18   42 1
  35   19   20 ar
  36   19   43 1
  37   20   21 ar
  38   20   44 1
  39   21   45 1
  40   22   23 3
  41   23   25 1
  42   25   26 1
  43   25   27 1
  44   25   28 1
  45   26   46 1
  46   26   47 1
  47   26   48 1
  48   27   49 1
  49   27   50 1
  50   27   51 1
  51   28   52 1
  52   28   53 1
  53   28   54 1
  54   29   30 2
  55   29   31 1
  56   31   32 1
  57   32   33 1
  58   32   55 1
  59   32   56 1
  60   33   57 1
  61   33   58 1
  62   33   59 1

#	End of record

