#	Name: ASD01410671
#	Creating user name:	WinNT
#	Creation time:	15. 06. 2019 19:18

#	Modifying user name:	WinNT
#	Modification time:	15. 06. 2019 19:18

#	Program:	/corina/corina34_cracker 3.40 0067  02.08.2006

@<TRIPOS>MOLECULE
ASD01410671
  86   89    0    0    0
SMALL
NO_CHARGES


@<TRIPOS>ATOM
   1 C1             0.0074    -1.9371     3.4145 C.ar    
   2 C2             0.9043    -2.2514     4.4259 C.ar    
   3 C3             2.2535    -2.3124     4.1376 C.ar    
   4 N4             2.6955    -2.0763     2.9172 N.ar    
   5 C5             1.8719    -1.7738     1.9270 C.ar    
   6 C6             0.5024    -1.6948     2.1448 C.ar    
   7 O7             2.3697    -1.5385     0.6871 O.3     
   8 C8             3.7205    -1.5330     0.5321 C.ar    
   9 C9             4.4349    -2.7202     0.6401 C.ar    
  10 C10            5.8063    -2.7258     0.4845 C.ar    
  11 C11            6.4824    -1.5431     0.2189 C.ar    
  12 C12            5.7669    -0.3410     0.1087 C.ar    
  13 C13            4.3783    -0.3469     0.2618 C.ar    
  14 N14            7.8676    -1.5493     0.0628 N.am    
  15 C15            8.4071    -1.7206    -1.1604 C.2     
  16 C16            8.7370    -1.3696     1.2282 C.3     
  17 O17            9.6100    -1.8123    -1.2852 O.2     
  18 C18            7.5157    -1.7984    -2.3729 C.3     
  19 C19            8.1215    -2.7676    -3.3900 C.3     
  20 C20            7.2165    -2.8466    -4.6211 C.3     
  21 C21            7.0910    -1.4582    -5.2517 C.3     
  22 C22            6.4852    -0.4890    -4.2346 C.3     
  23 C23            7.3902    -0.4101    -3.0035 C.3     
  24 C24            6.1860    -1.5372    -6.4828 C.3     
  25 C25            7.8896    -0.9816     2.4415 C.3     
  26 C26            9.4762    -2.6771     1.5195 C.3     
  27 C27            0.4113    -2.5225     5.8240 C.3     
  28 O28           10.3699    -2.9690     0.4433 O.3     
  29 N29            0.1245    -3.9556     5.9727 N.3     
  30 C30           11.1138    -4.1767     0.6168 C.3     
  31 O31            7.2927     0.2971     2.2164 O.3     
  32 C32            6.4758     0.7554     3.2956 C.3     
  33 C33           -0.1296    -4.2984     7.3778 C.3     
  34 C34           -0.5659    -5.7619     7.4763 C.3     
  35 C35            0.5363    -6.6576     6.9043 C.3     
  36 C36            0.8154    -6.2481     5.4555 C.3     
  37 C37            1.2117    -4.7705     5.4156 C.3     
  38 F38            1.8595    -7.0257     4.9432 F       
  39 F39           -0.3356    -6.4440     4.6848 F       
  40 C40            6.4760     0.9201    -0.1726 C.2     
  41 O41            7.6710     0.9093    -0.3924 O.2     
  42 O42            5.7990     2.0852    -0.1860 O.3     
  43 C43           -0.4320    -1.3499     1.0139 C.3     
  44 F44           -1.7490    -1.3335     1.4856 F       
  45 F45           -0.1031    -0.0887     0.5054 F       
  46 F46           -0.3113    -2.3071     0.0009 F       
  47 H47           -1.0531    -1.8872     3.6127 H       
  48 H48            2.9557    -2.5562     4.9211 H       
  49 H49            3.9142    -3.6434     0.8473 H       
  50 H50            6.3545    -3.6524     0.5698 H       
  51 H51            3.8208     0.5743     0.1783 H       
  52 H52            9.4608    -0.5808     1.0233 H       
  53 H53            6.5287    -2.1532    -2.0762 H       
  54 H54            9.1085    -2.4128    -3.6868 H       
  55 H55            8.2109    -3.7567    -2.9408 H       
  56 H56            7.6481    -3.5371    -5.3457 H       
  57 H57            6.2295    -3.2014    -4.3243 H       
  58 H58            8.0780    -1.1034    -5.5485 H       
  59 H59            6.3958     0.5001    -4.6839 H       
  60 H60            5.4982    -0.8438    -3.9379 H       
  61 H61            6.9586     0.2804    -2.2790 H       
  62 H62            8.3772    -0.0552    -3.3003 H       
  63 H63            5.1990    -1.8920    -6.1860 H       
  64 H64            6.0966    -0.5481    -6.9320 H       
  65 H65            6.6176    -2.2277    -7.2074 H       
  66 H66            7.1078    -1.7261     2.5918 H       
  67 H67            8.5230    -0.9360     3.3275 H       
  68 H68           10.0429    -2.5757     2.4450 H       
  69 H69            8.7545    -3.4874     1.6223 H       
  70 H70            1.1765    -2.2287     6.5425 H       
  71 H71           -0.4976    -1.9492     6.0063 H       
  72 H72           11.7144    -4.1064     1.5236 H       
  73 H73           10.4260    -5.0181     0.7009 H       
  74 H74           11.7682    -4.3269    -0.2418 H       
  75 H75            5.6647     0.0469     3.4636 H       
  76 H76            7.0799     0.8370     4.1993 H       
  77 H77            6.0598     1.7318     3.0473 H       
  78 H78            0.7813    -4.1511     7.9580 H       
  79 H79           -0.9183    -3.6570     7.7712 H       
  80 H80           -0.7394    -6.0204     8.5209 H       
  81 H81           -1.4844    -5.9069     6.9076 H       
  82 H82            1.4439    -6.5419     7.4968 H       
  83 H83            0.2118    -7.6978     6.9327 H       
  84 H84            1.3972    -4.4720     4.3838 H       
  85 H85            2.1163    -4.6210     6.0050 H       
  86 H86            6.3070     2.8860    -0.3753 H       
@<TRIPOS>BOND
   1    1    2 ar
   2    1    6 ar
   3    1   47 1
   4    2    3 ar
   5    2   27 1
   6    3    4 ar
   7    3   48 1
   8    4    5 ar
   9    5    6 ar
  10    5    7 1
  11    6   43 1
  12    7    8 1
  13    8    9 ar
  14    8   13 ar
  15    9   10 ar
  16    9   49 1
  17   10   11 ar
  18   10   50 1
  19   11   12 ar
  20   11   14 1
  21   12   13 ar
  22   12   40 1
  23   13   51 1
  24   14   15 am
  25   14   16 1
  26   15   17 2
  27   15   18 1
  28   16   25 1
  29   16   26 1
  30   16   52 1
  31   18   19 1
  32   18   23 1
  33   18   53 1
  34   19   20 1
  35   19   54 1
  36   19   55 1
  37   20   21 1
  38   20   56 1
  39   20   57 1
  40   21   22 1
  41   21   24 1
  42   21   58 1
  43   22   23 1
  44   22   59 1
  45   22   60 1
  46   23   61 1
  47   23   62 1
  48   24   63 1
  49   24   64 1
  50   24   65 1
  51   25   31 1
  52   25   66 1
  53   25   67 1
  54   26   28 1
  55   26   68 1
  56   26   69 1
  57   27   29 1
  58   27   70 1
  59   27   71 1
  60   28   30 1
  61   29   33 1
  62   29   37 1
  63   30   72 1
  64   30   73 1
  65   30   74 1
  66   31   32 1
  67   32   75 1
  68   32   76 1
  69   32   77 1
  70   33   34 1
  71   33   78 1
  72   33   79 1
  73   34   35 1
  74   34   80 1
  75   34   81 1
  76   35   36 1
  77   35   82 1
  78   35   83 1
  79   36   37 1
  80   36   38 1
  81   36   39 1
  82   37   84 1
  83   37   85 1
  84   40   41 2
  85   40   42 1
  86   42   86 1
  87   43   44 1
  88   43   45 1
  89   43   46 1

#	End of record

