#	Name: ASD02448166
#	Creating user name:	WinNT
#	Creation time:	15. 06. 2019 20:21

#	Modifying user name:	WinNT
#	Modification time:	15. 06. 2019 20:21

#	Program:	/corina/corina34_cracker 3.40 0067  02.08.2006

@<TRIPOS>MOLECULE
ASD02448166
  55   59    0    0    0
SMALL
NO_CHARGES


@<TRIPOS>ATOM
   1 C1            -0.3345     1.4681     0.1649 C.ar    
   2 C2            -0.2069     0.0943     0.0947 C.ar    
   3 C3             1.0542    -0.4871     0.0643 C.ar    
   4 C4             2.1863     0.3128     0.1040 C.ar    
   5 C5             2.0554     1.6930     0.1740 C.ar    
   6 C6             0.7911     2.2684     0.2045 C.ar    
   7 N7             3.1931     2.5022     0.2146 N.am    
   8 C8             3.9864     3.0014    -0.9162 C.3     
   9 C9             5.1313     3.8407    -0.4483 C.2     
  10 N10            5.2196     3.9788     0.8821 N.am    
  11 S11            3.9579     3.1291     1.5582 S.o2    
  12 O12            5.9191     4.3563    -1.2128 O.2     
  13 O13            3.0791     4.0794     2.1447 O.2     
  14 O14            4.5215     2.0305     2.2615 O.2     
  15 N15            1.1825    -1.8814    -0.0060 N.pl3   
  16 C16            1.8716    -2.5869    -0.9566 C.2     
  17 C17            0.6511    -2.7842     0.8597 C.2     
  18 N18            0.9863    -3.9843     0.4758 N.2     
  19 C19            1.7386    -3.9012    -0.6402 C.2     
  20 C20            2.3183    -5.0430    -1.3897 C.ar    
  21 C21            2.1025    -6.3504    -0.9510 C.ar    
  22 C22            3.0749    -4.8140    -2.5367 C.ar    
  23 C23            3.6124    -5.8790    -3.2309 C.ar    
  24 C24            3.4008    -7.1749    -2.7899 C.ar    
  25 C25            2.6449    -7.4098    -1.6530 C.ar    
  26 F26            3.9289    -8.2135    -3.4737 F       
  27 F27            1.3653    -6.5795     0.1577 F       
  28 C28            0.6898    -2.4047     3.2909 C.ar    
  29 C29            1.3604    -1.2402     3.6154 C.ar    
  30 C30            2.1610    -1.1943     4.7412 C.ar    
  31 C31            2.2912    -2.3138     5.5431 C.ar    
  32 C32            1.6200    -3.4788     5.2180 C.ar    
  33 C33            0.8196    -3.5238     4.0921 C.ar    
  34 Br34           3.3869    -2.2518     7.0831 Br      
  35 C35           -0.1879    -2.4524     2.0668 C.3     
  36 C36            0.6474     3.7666     0.2805 C.3     
  37 H37           -1.3163     1.9178     0.1843 H       
  38 H38           -1.0887    -0.5284     0.0639 H       
  39 H39            3.1679    -0.1371     0.0808 H       
  40 H40            4.3729     2.1542    -1.4827 H       
  41 H41            3.3465     3.5999    -1.5646 H       
  42 H42            5.8937     4.4840     1.3628 H       
  43 H43            2.4150    -2.1775    -1.7954 H       
  44 H44            3.2404    -3.8043    -2.8825 H       
  45 H45            4.1990    -5.7015    -4.1202 H       
  46 H46            2.4828    -8.4219    -1.3126 H       
  47 H47            1.2590    -0.3663     2.9890 H       
  48 H48            2.6851    -0.2846     4.9944 H       
  49 H49            1.7217    -4.3532     5.8437 H       
  50 H50            0.2955    -4.4333     3.8382 H       
  51 H51           -0.6638    -1.4823     1.9230 H       
  52 H52           -0.9537    -3.2168     2.1983 H       
  53 H53            0.6117     4.1798    -0.7275 H       
  54 H54           -0.2725     4.0170     0.8088 H       
  55 H55            1.4993     4.1866     0.8153 H       
@<TRIPOS>BOND
   1    1    2 ar
   2    1    6 ar
   3    1   37 1
   4    2    3 ar
   5    2   38 1
   6    3    4 ar
   7    3   15 1
   8    4    5 ar
   9    4   39 1
  10    5    6 ar
  11    5    7 1
  12    6   36 1
  13    7    8 1
  14    7   11 am
  15    8    9 1
  16    8   40 1
  17    8   41 1
  18    9   10 am
  19    9   12 2
  20   10   11 am
  21   10   42 1
  22   11   13 2
  23   11   14 2
  24   15   16 1
  25   15   17 1
  26   16   19 2
  27   16   43 1
  28   17   18 2
  29   17   35 1
  30   18   19 1
  31   19   20 1
  32   20   21 ar
  33   20   22 ar
  34   21   27 1
  35   21   25 ar
  36   22   23 ar
  37   22   44 1
  38   23   24 ar
  39   23   45 1
  40   24   25 ar
  41   24   26 1
  42   25   46 1
  43   28   29 ar
  44   28   33 ar
  45   28   35 1
  46   29   30 ar
  47   29   47 1
  48   30   31 ar
  49   30   48 1
  50   31   32 ar
  51   31   34 1
  52   32   33 ar
  53   32   49 1
  54   33   50 1
  55   35   51 1
  56   35   52 1
  57   36   53 1
  58   36   54 1
  59   36   55 1

#	End of record

