#	Name: ASD03330766
#	Creating user name:	WinNT
#	Creation time:	15. 06. 2019 20:37

#	Modifying user name:	WinNT
#	Modification time:	15. 06. 2019 20:37

#	Program:	/corina/corina34_cracker 3.40 0067  02.08.2006

@<TRIPOS>MOLECULE
ASD03330766
  66   68    0    0    0
SMALL
NO_CHARGES


@<TRIPOS>ATOM
   1 C1            -0.4104     2.3155     0.9774 C.2     
   2 N2            -0.8185     1.1157     1.4702 N.pl3   
   3 C3             0.9484     2.2742     0.8979 C.2     
   4 N4             1.3495     1.0557     1.3223 N.2     
   5 C5             0.2952     0.3516     1.6624 C.2     
   6 C6             0.3120    -1.0373     2.1698 C.ar    
   7 C7             1.8247     3.3634     0.4319 C.2     
   8 O8             1.3422     4.4205     0.0726 O.2     
   9 C9             4.0318     4.2712    -0.0596 C.3     
  10 N10            3.1607     3.1883     0.4037 N.am    
  11 C11            5.3430     3.6821    -0.5839 C.3     
  12 C12            4.3237     5.2060     1.0858 C.2     
  13 O13            3.9762     4.9141     2.2105 O.2     
  14 C14           -2.2072     0.7399     1.7498 C.3     
  15 C15           -3.0825     1.1254     0.5532 C.3     
  16 C16           -3.5608     2.5656     0.7068 C.3     
  17 N17           -2.5490     3.3888     1.3720 N.3     
  18 C18           -1.3110     3.4566     0.5814 C.3     
  19 C19           -0.4582    -1.3871     3.2797 C.ar    
  20 C20            1.0946    -2.0063     1.5365 C.ar    
  21 C21            1.1053    -3.3025     2.0165 C.ar    
  22 C22            0.3431    -3.6398     3.1212 C.ar    
  23 C23           -0.4387    -2.6838     3.7487 C.ar    
  24 C24           -3.0675     4.7339     1.6548 C.3     
  25 N25            4.9709     6.3665     0.8603 N.am    
  26 C26            5.3253     7.2378     1.9835 C.3     
  27 C27            5.0685     2.8803    -1.8577 C.3     
  28 C28            4.2046     1.6640    -1.5186 C.3     
  29 C29            4.3322     3.7633    -2.8673 C.3     
  30 C30            6.3942     2.4120    -2.4612 C.3     
  31 Cl31           0.3612    -5.2696     3.7187 Cl      
  32 F32            1.8385    -1.6772     0.4578 F       
  33 C33            5.3201     6.7567    -0.5079 C.3     
  34 H34            3.5348     4.8204    -0.8592 H       
  35 H35            3.5455     2.3452     0.6903 H       
  36 H36            6.0409     4.4893    -0.8059 H       
  37 H37            5.7746     3.0263     0.1722 H       
  38 H38           -2.2675    -0.3360     1.9137 H       
  39 H39           -2.5546     1.2650     2.6395 H       
  40 H40           -2.5027     1.0321    -0.3651 H       
  41 H41           -3.9447     0.4603     0.5056 H       
  42 H42           -3.7677     2.9809    -0.2795 H       
  43 H43           -4.4765     2.5772     1.2980 H       
  44 H44           -0.8064     4.4032     0.7749 H       
  45 H45           -1.5512     3.3804    -0.4790 H       
  46 H46           -1.0682    -0.6434     3.7708 H       
  47 H47            1.7091    -4.0532     1.5285 H       
  48 H48           -1.0313    -2.9537     4.6104 H       
  49 H49           -3.9391     4.6581     2.3049 H       
  50 H50           -2.2958     5.3243     2.1489 H       
  51 H51           -3.3522     5.2174     0.7203 H       
  52 H52            6.3146     6.9690     2.3538 H       
  53 H53            5.3317     8.2756     1.6503 H       
  54 H54            4.5933     7.1170     2.7820 H       
  55 H55            3.1929     1.9920    -1.2800 H       
  56 H56            4.1754     0.9891    -2.3741 H       
  57 H57            4.6300     1.1442    -0.6601 H       
  58 H58            4.9477     4.6298    -3.1089 H       
  59 H59            4.1367     3.1921    -3.7749 H       
  60 H60            3.3878     4.0969    -2.4374 H       
  61 H61            6.9187     1.7830    -1.7419 H       
  62 H62            6.1986     1.8408    -3.3687 H       
  63 H63            7.0096     3.2786    -2.7028 H       
  64 H64            4.5091     7.3460    -0.9358 H       
  65 H65            6.2334     7.3513    -0.4943 H       
  66 H66            5.4774     5.8629    -1.1117 H       
@<TRIPOS>BOND
   1    1    2 1
   2    1    3 2
   3    1   18 1
   4    2   14 1
   5    2    5 1
   6    3    4 1
   7    3    7 1
   8    4    5 2
   9    5    6 1
  10    6   20 ar
  11    6   19 ar
  12    7    8 2
  13    7   10 am
  14    9   10 1
  15    9   11 1
  16    9   12 1
  17    9   34 1
  18   10   35 1
  19   11   27 1
  20   11   36 1
  21   11   37 1
  22   12   13 2
  23   12   25 am
  24   14   15 1
  25   14   38 1
  26   14   39 1
  27   15   16 1
  28   15   40 1
  29   15   41 1
  30   16   17 1
  31   16   42 1
  32   16   43 1
  33   17   18 1
  34   17   24 1
  35   18   44 1
  36   18   45 1
  37   19   23 ar
  38   19   46 1
  39   20   21 ar
  40   20   32 1
  41   21   22 ar
  42   21   47 1
  43   22   23 ar
  44   22   31 1
  45   23   48 1
  46   24   49 1
  47   24   50 1
  48   24   51 1
  49   25   26 1
  50   25   33 1
  51   26   52 1
  52   26   53 1
  53   26   54 1
  54   27   29 1
  55   27   30 1
  56   27   28 1
  57   28   55 1
  58   28   56 1
  59   28   57 1
  60   29   58 1
  61   29   59 1
  62   29   60 1
  63   30   61 1
  64   30   62 1
  65   30   63 1
  66   33   64 1
  67   33   65 1
  68   33   66 1

#	End of record

