#	Name: ASD03090766
#	Creating user name:	WinNT
#	Creation time:	15. 06. 2019 20:29

#	Modifying user name:	WinNT
#	Modification time:	15. 06. 2019 20:29

#	Program:	/corina/corina34_cracker 3.40 0067  02.08.2006

@<TRIPOS>MOLECULE
ASD03090766
  40   42    0    0    0
SMALL
NO_CHARGES


@<TRIPOS>ATOM
   1 O1            -0.0173     1.4248     0.0099 O.3     
   2 C2             0.0021    -0.0041     0.0020 C.3     
   3 C3            -1.4333    -0.5336     0.0129 C.3     
   4 C4            -2.1755     0.0508     1.1870 C.ar    
   5 C5            -2.3459    -0.6957     2.3380 C.ar    
   6 C6            -3.0267    -0.1596     3.4150 C.ar    
   7 C7            -3.5368     1.1231     3.3412 C.ar    
   8 C8            -3.3656     1.8699     2.1906 C.ar    
   9 C9            -2.6810     1.3354     1.1152 C.ar    
  10 N10           -2.1054    -0.1483    -1.2305 N.am    
  11 C11           -1.9698    -0.9103    -2.3339 C.2     
  12 O12           -1.2914    -1.9150    -2.2975 O.2     
  13 C13           -2.6612    -0.5139    -3.6130 C.3     
  14 C14           -1.7823    -0.0538    -4.7778 C.3     
  15 C15           -2.4684    -1.4203    -4.8304 C.3     
  16 C16           -3.6343    -1.5778    -5.7722 C.ar    
  17 C17           -4.1787    -2.8287    -5.9951 C.ar    
  18 C18           -5.2481    -2.9731    -6.8591 C.ar    
  19 C19           -5.7734    -1.8666    -7.4998 C.ar    
  20 C20           -5.2295    -0.6155    -7.2762 C.ar    
  21 C21           -4.1629    -0.4705    -6.4089 C.ar    
  22 H22            0.8606     1.8301     0.0037 H       
  23 H23            0.5123    -0.3556    -0.8948 H       
  24 H24            0.5293    -0.3651     0.8851 H       
  25 H25           -1.4190    -1.6203     0.0965 H       
  26 H26           -1.9474    -1.6978     2.3956 H       
  27 H27           -3.1604    -0.7430     4.3140 H       
  28 H28           -4.0693     1.5417     4.1824 H       
  29 H29           -3.7644     2.8719     2.1329 H       
  30 H30           -2.5473     1.9188     0.2162 H       
  31 H31           -2.6480     0.6552    -1.2597 H       
  32 H32           -3.6311    -0.0312    -3.4930 H       
  33 H33           -2.1742     0.7313    -5.4244 H       
  34 H34           -0.7041    -0.0378    -4.6190 H       
  35 H35           -1.8416    -2.3033    -4.7062 H       
  36 H36           -3.7683    -3.6932    -5.4946 H       
  37 H37           -5.6730    -3.9505    -7.0338 H       
  38 H38           -6.6084    -1.9795    -8.1753 H       
  39 H39           -5.6397     0.2490    -7.7770 H       
  40 H40           -3.7380     0.5070    -6.2342 H       
@<TRIPOS>BOND
   1    1    2 1
   2    1   22 1
   3    2    3 1
   4    2   23 1
   5    2   24 1
   6    3    4 1
   7    3   10 1
   8    3   25 1
   9    4    5 ar
  10    4    9 ar
  11    5    6 ar
  12    5   26 1
  13    6    7 ar
  14    6   27 1
  15    7    8 ar
  16    7   28 1
  17    8    9 ar
  18    8   29 1
  19    9   30 1
  20   10   11 am
  21   10   31 1
  22   11   12 2
  23   11   13 1
  24   13   14 1
  25   13   15 1
  26   13   32 1
  27   14   15 1
  28   14   33 1
  29   14   34 1
  30   15   16 1
  31   15   35 1
  32   16   17 ar
  33   16   21 ar
  34   17   18 ar
  35   17   36 1
  36   18   19 ar
  37   18   37 1
  38   19   20 ar
  39   19   38 1
  40   20   21 ar
  41   20   39 1
  42   21   40 1

#	End of record

