#	Name: ASD01916293
#	Creating user name:	WinNT
#	Creation time:	15. 06. 2019 20:07

#	Modifying user name:	WinNT
#	Modification time:	15. 06. 2019 20:07

#	Program:	/corina/corina34_cracker 3.40 0067  02.08.2006

@<TRIPOS>MOLECULE
ASD01916293
  46   47    0    0    0
SMALL
NO_CHARGES


@<TRIPOS>ATOM
   1 C1            -0.0169     1.3976     0.0097 C.ar    
   2 C2             0.0021    -0.0041     0.0020 C.ar    
   3 C3             1.2368    -0.6677    -0.0133 C.ar    
   4 N4             2.3606     0.0095    -0.0200 N.ar    
   5 C5             2.3777     1.3384    -0.0130 C.ar    
   6 C6             1.1899     2.0702     0.0018 C.ar    
   7 C7            -1.2220    -0.7472     0.0102 C.1     
   8 C8            -2.2255    -1.3564     0.0169 C.1     
   9 C9            -3.4496    -2.0995     0.0250 C.ar    
  10 C10            3.6737     2.0513    -0.0210 C.2     
  11 O11            3.6989     3.2665    -0.0147 O.2     
  12 N12            4.8266     1.3535    -0.0354 N.am    
  13 C13            6.1102     2.0596    -0.0433 C.3     
  14 C14            7.1927     1.1566     0.5515 C.3     
  15 C15            6.4833     2.4233    -1.4819 C.3     
  16 C16            6.7607     0.6918     1.9438 C.3     
  17 O17            7.3815     0.0195    -0.2930 O.3     
  18 C18            8.5049     1.9361     0.6584 C.3     
  19 C19           -3.4229    -3.4968     0.0173 C.ar    
  20 C20           -4.6060    -4.2057     0.0252 C.ar    
  21 C21           -5.8172    -3.5369     0.0408 C.ar    
  22 C22           -5.8516    -2.1533     0.0485 C.ar    
  23 C23           -4.6770    -1.4309     0.0466 C.ar    
  24 C24           -4.5795    -5.7124     0.0163 C.3     
  25 H25           -0.9518     1.9383     0.0171 H       
  26 H26            1.2632    -1.7474    -0.0194 H       
  27 H27            1.2135     3.1499     0.0074 H       
  28 H28            4.8065     0.3837    -0.0404 H       
  29 H29            6.0283     2.9691     0.5518 H       
  30 H30            7.4383     2.9486    -1.4878 H       
  31 H31            6.5652     1.5137    -2.0770 H       
  32 H32            5.7121     3.0665    -1.9057 H       
  33 H33            5.8259     0.1366     1.8676 H       
  34 H34            7.5319     0.0486     2.3676 H       
  35 H35            6.6167     1.5592     2.5879 H       
  36 H36            6.5886    -0.5223    -0.4063 H       
  37 H37            8.3609     2.8035     1.3026 H       
  38 H38            9.2761     1.2928     1.0822 H       
  39 H39            8.8127     2.2672    -0.3334 H       
  40 H40           -2.4782    -4.0201     0.0048 H       
  41 H41           -6.7404    -4.0974     0.0465 H       
  42 H42           -6.8008    -1.6381     0.0603 H       
  43 H43           -4.7054    -0.3513     0.0526 H       
  44 H44           -4.5627    -6.0816     1.0418 H       
  45 H45           -5.4681    -6.0885    -0.4907 H       
  46 H46           -3.6885    -6.0571    -0.5085 H       
@<TRIPOS>BOND
   1    1    2 ar
   2    1    6 ar
   3    1   25 1
   4    2    3 ar
   5    2    7 1
   6    3    4 ar
   7    3   26 1
   8    4    5 ar
   9    5    6 ar
  10    5   10 1
  11    6   27 1
  12    7    8 3
  13    8    9 1
  14    9   19 ar
  15    9   23 ar
  16   10   11 2
  17   10   12 am
  18   12   13 1
  19   12   28 1
  20   13   14 1
  21   13   15 1
  22   13   29 1
  23   14   16 1
  24   14   17 1
  25   14   18 1
  26   15   30 1
  27   15   31 1
  28   15   32 1
  29   16   33 1
  30   16   34 1
  31   16   35 1
  32   17   36 1
  33   18   37 1
  34   18   38 1
  35   18   39 1
  36   19   20 ar
  37   19   40 1
  38   20   21 ar
  39   20   24 1
  40   21   22 ar
  41   21   41 1
  42   22   23 ar
  43   22   42 1
  44   23   43 1
  45   24   44 1
  46   24   45 1
  47   24   46 1

#	End of record

