#	Name: ASD01200396
#	Creating user name:	WinNT
#	Creation time:	15. 06. 2019 19:09

#	Modifying user name:	WinNT
#	Modification time:	15. 06. 2019 19:09

#	Program:	/corina/corina34_cracker 3.40 0067  02.08.2006

@<TRIPOS>MOLECULE
ASD01200396
  84   87    0    0    0
SMALL
NO_CHARGES


@<TRIPOS>ATOM
   1 N1             0.1414     1.2216     0.1077 N.pl3   
   2 C2            -0.0309    -0.2332     0.0979 C.3     
   3 C3            -1.0414    -0.6344     1.1744 C.3     
   4 P4            -0.6420    -0.7618    -1.5363 P.3     
   5 C5             1.4200     1.7758    -0.0241 C.ar    
   6 O6            -0.7066    -2.3695    -1.5908 O.3     
   7 O7            -1.9951    -0.2057    -1.7605 O.2     
   8 O8             0.3550    -0.2256    -2.6811 O.3     
   9 C9             0.0952    -0.3863    -4.0771 C.3     
  10 C10            1.2379     0.2345    -4.8833 C.3     
  11 C11           -1.2435    -3.0896    -2.7022 C.3     
  12 C12           -1.1522    -4.5922    -2.4285 C.3     
  13 C13            2.5039     0.9593    -0.2943 C.ar    
  14 C14            3.7778     1.5165    -0.4255 C.ar    
  15 C15            3.9520     2.8949    -0.2834 C.ar    
  16 C16            2.8679     3.7035    -0.0140 C.ar    
  17 C17            1.6012     3.1524     0.1113 C.ar    
  18 N18           -2.3277     0.0115     0.9017 N.pl3   
  19 O19            0.5361     3.9537     0.3769 O.3     
  20 C20            4.9383     0.6499    -0.7135 C.2     
  21 N21            6.1645     1.0718    -0.8538 N.2     
  22 C22            7.0806     0.1763    -1.1070 C.2     
  23 C23            6.6013    -1.1043    -1.1889 C.2     
  24 S24            4.8638    -1.0472    -0.9023 S.3     
  25 C25            7.3919    -2.3055    -1.4600 C.2     
  26 C26            8.5357     0.5213    -1.2934 C.3     
  27 O27            6.7896    -3.5116    -1.5135 O.3     
  28 O28            8.5920    -2.2166    -1.6370 O.2     
  29 C29            7.6224    -4.6412    -1.7824 C.3     
  30 C30            6.7686    -5.9106    -1.8043 C.3     
  31 C31           -3.3964    -0.2022     1.7412 C.2     
  32 N32           -3.2663    -0.9926     2.7987 N.2     
  33 C33           -4.2941    -1.2063     3.6184 C.2     
  34 N34           -5.4897    -0.6294     3.3985 N.am    
  35 C35           -5.6715     0.1903     2.3252 C.2     
  36 C36           -4.6346     0.4221     1.4858 C.2     
  37 O37           -4.1492    -1.9373     4.5842 O.2     
  38 C38           -6.6019    -0.8844     4.3174 C.3     
  39 C39           -6.3263    -0.2308     5.6897 C.3     
  40 C40           -7.0394     1.1372     5.6039 C.3     
  41 C41           -7.6615     1.1483     4.1900 C.3     
  42 O42           -7.8056    -0.2453     3.8393 O.3     
  43 O43           -6.8838    -1.0210     6.7417 O.3     
  44 O44           -8.0591     1.2336     6.6004 O.3     
  45 C45           -9.0283     1.8353     4.2148 C.3     
  46 O46           -9.5337     1.9389     2.8822 O.3     
  47 H47           -0.6310     1.8008     0.2015 H       
  48 H48            0.9262    -0.7138     0.3008 H       
  49 H49           -1.1696    -1.7168     1.1671 H       
  50 H50           -0.6760    -0.3184     2.1515 H       
  51 H51            0.0191    -1.4478    -4.3127 H       
  52 H52           -0.8409     0.1105    -4.3320 H       
  53 H53            2.1740    -0.2623    -4.6284 H       
  54 H54            1.0397     0.1119    -5.9481 H       
  55 H55            1.3140     1.2960    -4.6476 H       
  56 H56           -2.2869    -2.8094    -2.8470 H       
  57 H57           -0.6746    -2.8487    -3.6002 H       
  58 H58           -1.7211    -4.8331    -1.5305 H       
  59 H59           -1.5617    -5.1415    -3.2763 H       
  60 H60           -0.1089    -4.8724    -2.2838 H       
  61 H61            2.3653    -0.1062    -0.4032 H       
  62 H62            4.9364     3.3277    -0.3841 H       
  63 H63            3.0049     4.7692     0.0959 H       
  64 H64           -2.4259     0.5899     0.1293 H       
  65 H65            0.0945     4.2954    -0.4126 H       
  66 H66            9.0449     0.4810    -0.3305 H       
  67 H67            8.9939    -0.1935    -1.9769 H       
  68 H68            8.6208     1.5260    -1.7075 H       
  69 H69            8.1075    -4.5129    -2.7500 H       
  70 H70            8.3809    -4.7269    -1.0042 H       
  71 H71            6.0101    -5.8250    -2.5824 H       
  72 H72            7.4038    -6.7723    -2.0094 H       
  73 H73            6.2835    -6.0390    -0.8366 H       
  74 H74           -6.6310     0.6534     2.1484 H       
  75 H75           -4.7554     1.0715     0.6314 H       
  76 H76           -6.7597    -1.9567     4.4327 H       
  77 H77           -5.2552    -0.0944     5.8395 H       
  78 H78           -6.3209     1.9499     5.7115 H       
  79 H79           -6.9965     1.6497     3.4868 H       
  80 H80           -6.7400    -0.6567     7.6258 H       
  81 H81           -8.5393     2.0729     6.5919 H       
  82 H82           -9.7189     1.2487     4.8207 H       
  83 H83           -8.9261     2.8324     4.6431 H       
  84 H84          -10.3994     2.3655     2.8219 H       
@<TRIPOS>BOND
   1    1    2 1
   2    1    5 1
   3    1   47 1
   4    2    3 1
   5    2    4 1
   6    2   48 1
   7    3   18 1
   8    3   49 1
   9    3   50 1
  10    4    6 1
  11    4    7 2
  12    4    8 1
  13    5   13 ar
  14    5   17 ar
  15    6   11 1
  16    8    9 1
  17    9   10 1
  18    9   51 1
  19    9   52 1
  20   10   53 1
  21   10   54 1
  22   10   55 1
  23   11   12 1
  24   11   56 1
  25   11   57 1
  26   12   58 1
  27   12   59 1
  28   12   60 1
  29   13   14 ar
  30   13   61 1
  31   14   15 ar
  32   14   20 1
  33   15   16 ar
  34   15   62 1
  35   16   17 ar
  36   16   63 1
  37   17   19 1
  38   18   31 1
  39   18   64 1
  40   19   65 1
  41   20   21 2
  42   20   24 1
  43   21   22 1
  44   22   23 2
  45   22   26 1
  46   23   24 1
  47   23   25 1
  48   25   27 1
  49   25   28 2
  50   26   66 1
  51   26   67 1
  52   26   68 1
  53   27   29 1
  54   29   30 1
  55   29   69 1
  56   29   70 1
  57   30   71 1
  58   30   72 1
  59   30   73 1
  60   31   32 2
  61   31   36 1
  62   32   33 1
  63   33   34 am
  64   33   37 2
  65   34   35 1
  66   34   38 1
  67   35   36 2
  68   35   74 1
  69   36   75 1
  70   38   39 1
  71   38   42 1
  72   38   76 1
  73   39   40 1
  74   39   43 1
  75   39   77 1
  76   40   41 1
  77   40   44 1
  78   40   78 1
  79   41   42 1
  80   41   45 1
  81   41   79 1
  82   43   80 1
  83   44   81 1
  84   45   46 1
  85   45   82 1
  86   45   83 1
  87   46   84 1

#	End of record

