#	Name: ASD00122021
#	Creating user name:	WinNT
#	Creation time:	15. 06. 2019 18:31

#	Modifying user name:	WinNT
#	Modification time:	15. 06. 2019 18:31

#	Program:	/corina/corina34_cracker 3.40 0067  02.08.2006

@<TRIPOS>MOLECULE
ASD00122021
  31   31    0    0    0
SMALL
NO_CHARGES


@<TRIPOS>ATOM
   1 C1            -0.0167     1.3809     0.0096 C.ar    
   2 C2             0.0021    -0.0041     0.0020 C.ar    
   3 C3             1.2077    -0.6858    -0.0127 C.ar    
   4 C4             2.3973     0.0116    -0.0204 C.ar    
   5 C5             2.3847     1.4077    -0.0132 C.ar    
   6 C6             1.1664     2.0893     0.0021 C.ar    
   7 C7             3.6562     2.1610    -0.0209 C.2     
   8 N8             3.6410     3.5087    -0.0140 N.am    
   9 O9             4.7156     1.5651    -0.0335 O.2     
  10 C10            4.9013     4.2554    -0.0216 C.3     
  11 C11            4.6683     5.6432    -0.6221 C.3     
  12 C12            5.4171     4.4000     1.4116 C.3     
  13 C13            5.7682     3.0191     1.9690 C.3     
  14 C14            4.2724     5.5023    -2.0933 C.3     
  15 Cl15          -1.4914    -0.8890     0.0116 Cl      
  16 H16           -0.9598     1.9071     0.0170 H       
  17 H17            1.2161    -1.7658    -0.0179 H       
  18 H18            3.3367    -0.5210    -0.0316 H       
  19 H19            1.1505     3.1691     0.0074 H       
  20 H20            2.7956     3.9841    -0.0039 H       
  21 H21            5.6377     3.7194    -0.6204 H       
  22 H22            3.8689     6.1453    -0.0772 H       
  23 H23            5.5837     6.2301    -0.5468 H       
  24 H24            6.3064     5.0304     1.4159 H       
  25 H25            4.6452     4.8564     2.0313 H       
  26 H26            6.1357     3.1221     2.9900 H       
  27 H27            4.8790     2.3887     1.9647 H       
  28 H28            6.5401     2.5626     1.3494 H       
  29 H29            5.0718     5.0002    -2.6382 H       
  30 H30            3.3570     4.9154    -2.1686 H       
  31 H31            4.1064     6.4910    -2.5211 H       
@<TRIPOS>BOND
   1    1    2 ar
   2    1    6 ar
   3    1   16 1
   4    2    3 ar
   5    2   15 1
   6    3    4 ar
   7    3   17 1
   8    4    5 ar
   9    4   18 1
  10    5    6 ar
  11    5    7 1
  12    6   19 1
  13    7    8 am
  14    7    9 2
  15    8   10 1
  16    8   20 1
  17   10   11 1
  18   10   12 1
  19   10   21 1
  20   11   14 1
  21   11   22 1
  22   11   23 1
  23   12   13 1
  24   12   24 1
  25   12   25 1
  26   13   26 1
  27   13   27 1
  28   13   28 1
  29   14   29 1
  30   14   30 1
  31   14   31 1

#	End of record

