#	Name: ASD02508477
#	Creating user name:	WinNT
#	Creation time:	15. 06. 2019 20:24

#	Modifying user name:	WinNT
#	Modification time:	15. 06. 2019 20:24

#	Program:	/corina/corina34_cracker 3.40 0067  02.08.2006

@<TRIPOS>MOLECULE
ASD02508477
  32   34    0    0    0
SMALL
NO_CHARGES


@<TRIPOS>ATOM
   1 N1            -0.0659     1.2540    -0.0935 N.2     
   2 C2             0.0635    -0.0415     0.2308 C.2     
   3 C3             1.3744    -0.3461     0.2334 C.2     
   4 N4             2.0495     0.8014    -0.0992 N.pl3   
   5 C5             1.1153     1.7703    -0.2936 C.2     
   6 C6             3.4325     0.9466    -0.2158 C.ar    
   7 N7             4.2299    -0.1138    -0.1489 N.ar    
   8 C8             3.9978     2.2055    -0.4101 C.ar    
   9 C9             5.3733     2.2984    -0.5203 C.ar    
  10 N10            6.1038     1.1966    -0.4383 N.ar    
  11 C11            5.5373     0.0187    -0.2591 C.ar    
  12 S12            2.0871    -1.9164     0.5954 S.o2    
  13 N13            2.1842    -2.7513    -0.8314 N.am    
  14 C14            3.0190    -2.2921    -1.8547 C.ar    
  15 C15            3.8385    -3.1825    -2.5356 C.ar    
  16 C16            4.6624    -2.7272    -3.5469 C.ar    
  17 C17            4.6718    -1.3843    -3.8819 C.ar    
  18 C18            3.8552    -0.4932    -3.2036 C.ar    
  19 C19            3.0253    -0.9456    -2.1953 C.ar    
  20 O20            3.4244    -1.6652     1.0052 O.2     
  21 O21            1.1441    -2.6086     1.4021 O.2     
  22 Cl22           6.5407    -1.3943    -0.1579 Cl      
  23 F23            5.4784    -0.9414    -4.8711 F       
  24 Cl24           3.8694     1.1906    -3.6256 Cl      
  25 H25           -0.7451    -0.7225     0.4519 H       
  26 H26            1.3173     2.7952    -0.5677 H       
  27 H27            3.3770     3.0870    -0.4734 H       
  28 H28            5.8460     3.2576    -0.6717 H       
  29 H29            1.6619    -3.5589    -0.9572 H       
  30 H30            3.8321    -4.2305    -2.2746 H       
  31 H31            5.3001    -3.4198    -4.0762 H       
  32 H32            2.3887    -0.2514    -1.6669 H       
@<TRIPOS>BOND
   1    1    2 1
   2    1    5 2
   3    2    3 2
   4    2   25 1
   5    3    4 1
   6    3   12 1
   7    4    5 1
   8    4    6 1
   9    5   26 1
  10    6    7 ar
  11    6    8 ar
  12    7   11 ar
  13    8    9 ar
  14    8   27 1
  15    9   10 ar
  16    9   28 1
  17   10   11 ar
  18   11   22 1
  19   12   13 am
  20   12   20 2
  21   12   21 2
  22   13   14 1
  23   13   29 1
  24   14   15 ar
  25   14   19 ar
  26   15   16 ar
  27   15   30 1
  28   16   17 ar
  29   16   31 1
  30   17   18 ar
  31   17   23 1
  32   18   19 ar
  33   18   24 1
  34   19   32 1

#	End of record

