#	Name: ASD00311130
#	Creating user name:	WinNT
#	Creation time:	15. 06. 2019 18:34

#	Modifying user name:	WinNT
#	Modification time:	15. 06. 2019 18:34

#	Program:	/corina/corina34_cracker 3.40 0067  02.08.2006

@<TRIPOS>MOLECULE
ASD00311130
  50   54    0    0    0
SMALL
NO_CHARGES


@<TRIPOS>ATOM
   1 C1            -0.0167     1.3778     0.0096 C.2     
   2 C2             0.0021    -0.0041     0.0020 C.2     
   3 C3             1.2585    -0.6766    -0.0136 C.2     
   4 C4             2.4315     0.0673    -0.0208 C.2     
   5 C5             2.3576     1.4751    -0.0126 C.2     
   6 N6             1.1651     2.0904     0.0022 N.am    
   7 C7            -1.3434    -0.5752     0.0123 C.2     
   8 C8            -2.3230     0.3265     0.0268 C.2     
   9 S9            -1.6792     1.9565     0.0358 S.3     
  10 O10            3.3825     2.1371    -0.0188 O.2     
  11 C11            3.7475    -0.6121    -0.0366 C.ar    
  12 C12            4.5933    -0.4748    -1.1371 C.ar    
  13 C13            5.8180    -1.1102    -1.1459 C.ar    
  14 C14            6.2077    -1.8823    -0.0660 C.ar    
  15 C15            5.3732    -2.0223     1.0285 C.ar    
  16 C16            4.1484    -1.3871     1.0515 C.ar    
  17 O17            1.3084    -2.0291    -0.0209 O.3     
  18 Cl18          -4.0150    -0.0615     0.0415 Cl      
  19 C19           -1.5961    -2.0356     0.0062 C.ar    
  20 C20           -1.7281    -2.7204    -1.2067 C.ar    
  21 C21           -1.9641    -4.0844    -1.2043 C.ar    
  22 C22           -2.0689    -4.7680    -0.0043 C.ar    
  23 C23           -1.9386    -4.0921     1.1979 C.ar    
  24 C24           -1.6974    -2.7328     1.2080 C.ar    
  25 F25           -2.2997    -6.0991    -0.0062 F       
  26 O26           -1.6255    -2.0485    -2.3835 O.3     
  27 C27           -1.7711    -2.8131    -3.5820 C.3     
  28 C28           -1.6281    -1.9061    -4.7769 C.ar    
  29 C29           -0.3829    -1.6938    -5.3384 C.ar    
  30 C30           -0.2517    -0.8618    -6.4345 C.ar    
  31 C31           -1.3657    -0.2425    -6.9695 C.ar    
  32 C32           -2.6111    -0.4555    -6.4085 C.ar    
  33 C33           -2.7429    -1.2909    -5.3151 C.ar    
  34 H34            1.1330     3.0599     0.0073 H       
  35 H35            4.2900     0.1274    -1.9808 H       
  36 H36            6.4737    -1.0049    -1.9976 H       
  37 H37            7.1671    -2.3780    -0.0777 H       
  38 H38            5.6829    -2.6263     1.8685 H       
  39 H39            3.4997    -1.4936     1.9084 H       
  40 H40            2.2056    -2.3896    -0.0315 H       
  41 H41           -2.0668    -4.6158    -2.1388 H       
  42 H42           -2.0214    -4.6310     2.1302 H       
  43 H43           -1.5918    -2.2095     2.1469 H       
  44 H44           -1.0014    -3.5841    -3.6168 H       
  45 H45           -2.7553    -3.2812    -3.5969 H       
  46 H46            0.4875    -2.1777    -4.9205 H       
  47 H47            0.7213    -0.6954    -6.8728 H       
  48 H48           -1.2631     0.4081    -7.8254 H       
  49 H49           -3.4814     0.0286    -6.8263 H       
  50 H50           -3.7164    -1.4602    -4.8791 H       
@<TRIPOS>BOND
   1    1    2 2
   2    1    6 1
   3    1    9 1
   4    2    3 1
   5    2    7 1
   6    3    4 2
   7    3   17 1
   8    4    5 1
   9    4   11 1
  10    5    6 am
  11    5   10 2
  12    6   34 1
  13    7    8 2
  14    7   19 1
  15    8    9 1
  16    8   18 1
  17   11   12 ar
  18   11   16 ar
  19   12   13 ar
  20   12   35 1
  21   13   14 ar
  22   13   36 1
  23   14   15 ar
  24   14   37 1
  25   15   16 ar
  26   15   38 1
  27   16   39 1
  28   17   40 1
  29   19   20 ar
  30   19   24 ar
  31   20   21 ar
  32   20   26 1
  33   21   22 ar
  34   21   41 1
  35   22   23 ar
  36   22   25 1
  37   23   24 ar
  38   23   42 1
  39   24   43 1
  40   26   27 1
  41   27   28 1
  42   27   44 1
  43   27   45 1
  44   28   29 ar
  45   28   33 ar
  46   29   30 ar
  47   29   46 1
  48   30   31 ar
  49   30   47 1
  50   31   32 ar
  51   31   48 1
  52   32   33 ar
  53   32   49 1
  54   33   50 1

#	End of record

