#	Name: ASD01380016
#	Creating user name:	WinNT
#	Creation time:	15. 06. 2019 19:16

#	Modifying user name:	WinNT
#	Modification time:	15. 06. 2019 19:16

#	Program:	/corina/corina34_cracker 3.40 0067  02.08.2006

@<TRIPOS>MOLECULE
ASD01380016
  70   73    0    0    0
SMALL
NO_CHARGES


@<TRIPOS>ATOM
   1 C1            -1.6039     1.5506    -0.3612 C.3     
   2 C2            -1.3604     0.0405    -0.3253 C.3     
   3 C3            -0.5648    -0.3773    -1.5636 C.3     
   4 N4            -0.3317    -1.8233    -1.5293 N.pl3   
   5 C5             0.3745    -2.4373    -2.5554 C.ar    
   6 C6             0.7463    -1.7105    -3.6793 C.ar    
   7 C7             1.4480    -2.3224    -4.6978 C.ar    
   8 C8             1.7874    -3.6639    -4.6093 C.ar    
   9 C9             1.4277    -4.4016    -3.5018 C.ar    
  10 C10            0.7215    -3.7947    -2.4596 C.ar    
  11 C11            0.3338    -4.5766    -1.2731 C.2     
  12 O12           -0.1823    -4.0229    -0.3224 O.2     
  13 O13            0.5515    -5.9062    -1.2417 O.3     
  14 C14            0.1442    -6.6128    -0.0404 C.3     
  15 C15            1.0503    -7.8360     0.1993 C.3     
  16 C16            1.7581    -7.7025     1.5492 C.3     
  17 O17            2.6822    -8.7804     1.7111 O.3     
  18 P18            3.6031    -8.9568     3.0199 P.3     
  19 O19            2.7466    -8.9762     4.2268 O.2     
  20 O20            4.4197   -10.3406     2.9190 O.3     
  21 P21            5.1555   -11.2860     3.9946 P.3     
  22 O22            4.2827   -11.4602     5.1771 O.2     
  23 O23            5.4538   -12.7224     3.3314 O.3     
  24 P24            5.7652   -14.1858     3.9260 P.3     
  25 O25            6.6627   -14.0621     5.0963 O.2     
  26 O26            4.3875   -14.8858     4.3779 O.3     
  27 O27            6.4779   -15.0839     2.7957 O.3     
  28 O28            6.5427   -10.6054     4.4471 O.3     
  29 O29            4.6391    -7.7282     3.1168 O.3     
  30 O30            0.2058    -8.9992     0.2031 O.3     
  31 C31           -0.9489    -8.6843    -0.6044 C.3     
  32 C32           -1.2696    -7.2173    -0.2204 C.3     
  33 O33           -2.0082    -7.1598     1.0016 O.3     
  34 N34           -0.6250    -8.7856    -2.0295 N.pl3   
  35 C35            0.6207    -8.7248    -2.5798 C.2     
  36 N36            0.5420    -8.8503    -3.8728 N.2     
  37 C37           -0.7553    -8.9991    -4.2332 C.ar    
  38 C38           -1.5191    -8.9649    -3.0546 C.ar    
  39 N39           -2.8396    -9.0920    -3.1367 N.ar    
  40 C40           -3.4273    -9.2480    -4.3040 C.ar    
  41 N41           -2.7518    -9.2864    -5.4382 N.ar    
  42 C42           -1.4280    -9.1716    -5.4551 C.ar    
  43 N43           -0.7289    -9.2126    -6.6487 N.pl3   
  44 Br44           2.7482    -4.4858    -6.0155 Br      
  45 H45           -0.6471     2.0727    -0.3715 H       
  46 H46           -2.1672     1.8066    -1.2585 H       
  47 H47           -2.1707     1.8482     0.5210 H       
  48 H48           -0.7971    -0.2156     0.5720 H       
  49 H49           -2.3172    -0.4816    -0.3150 H       
  50 H50           -1.1281    -0.1213    -2.4609 H       
  51 H51            0.3920     0.1448    -1.5739 H       
  52 H52           -0.6706    -2.3518    -0.7899 H       
  53 H53            0.4856    -0.6653    -3.7563 H       
  54 H54            1.7343    -1.7529    -5.5696 H       
  55 H55            1.6946    -5.4461    -3.4379 H       
  56 H56            0.1690    -5.9450     0.8207 H       
  57 H57            1.7878    -7.9132    -0.5996 H       
  58 H58            2.2952    -6.7548     1.5857 H       
  59 H59            1.0202    -7.7331     2.3509 H       
  60 H60            3.7500   -14.9994     3.6598 H       
  61 H61            6.6950   -15.9807     3.0849 H       
  62 H62            7.1650   -10.4609     3.7213 H       
  63 H63            5.2334    -7.6541     2.3576 H       
  64 H64           -1.7836    -9.3383    -0.3521 H       
  65 H65           -1.8085    -6.7140    -1.0231 H       
  66 H66           -2.8654    -7.6058     0.9644 H       
  67 H67            1.5375    -8.5918    -2.0247 H       
  68 H68           -4.5021    -9.3488    -4.3354 H       
  69 H69           -1.2051    -9.3262    -7.4860 H       
  70 H70            0.2374    -9.1276    -6.6479 H       
@<TRIPOS>BOND
   1    1    2 1
   2    1   45 1
   3    1   46 1
   4    1   47 1
   5    2    3 1
   6    2   48 1
   7    2   49 1
   8    3    4 1
   9    3   50 1
  10    3   51 1
  11    4    5 1
  12    4   52 1
  13    5    6 ar
  14    5   10 ar
  15    6    7 ar
  16    6   53 1
  17    7    8 ar
  18    7   54 1
  19    8    9 ar
  20    8   44 1
  21    9   10 ar
  22    9   55 1
  23   10   11 1
  24   11   12 2
  25   11   13 1
  26   13   14 1
  27   14   15 1
  28   14   32 1
  29   14   56 1
  30   15   16 1
  31   15   30 1
  32   15   57 1
  33   16   17 1
  34   16   58 1
  35   16   59 1
  36   17   18 1
  37   18   19 2
  38   18   20 1
  39   18   29 1
  40   20   21 1
  41   21   22 2
  42   21   23 1
  43   21   28 1
  44   23   24 1
  45   24   25 2
  46   24   26 1
  47   24   27 1
  48   26   60 1
  49   27   61 1
  50   28   62 1
  51   29   63 1
  52   30   31 1
  53   31   32 1
  54   31   34 1
  55   31   64 1
  56   32   33 1
  57   32   65 1
  58   33   66 1
  59   34   35 1
  60   34   38 1
  61   35   36 2
  62   35   67 1
  63   36   37 1
  64   37   38 ar
  65   37   42 ar
  66   38   39 ar
  67   39   40 ar
  68   40   41 ar
  69   40   68 1
  70   41   42 ar
  71   42   43 1
  72   43   69 1
  73   43   70 1

#	End of record

