#	Name: ASD01148714
#	Creating user name:	WinNT
#	Creation time:	15. 06. 2019 19:03

#	Modifying user name:	WinNT
#	Modification time:	15. 06. 2019 19:03

#	Program:	/corina/corina34_cracker 3.40 0067  02.08.2006

@<TRIPOS>MOLECULE
ASD01148714
  61   64    0    0    0
SMALL
NO_CHARGES


@<TRIPOS>ATOM
   1 N1            -0.0159     1.3408     0.0806 N.pl3   
   2 C2             0.0025     0.0049    -0.1115 C.2     
   3 C3             1.3184    -0.4070    -0.1549 C.2     
   4 C4             2.1213     0.7503     0.0213 C.2     
   5 C5             1.2767     1.8043     0.1629 C.2     
   6 C6             1.7985    -1.7846    -0.3475 C.2     
   7 O7             1.0019    -2.6918    -0.4877 O.2     
   8 O8             3.1217    -2.0403    -0.3684 O.3     
   9 C9            -1.1690     2.1311     0.1752 C.ar    
  10 C10           -2.0122     2.0030     1.2708 C.ar    
  11 C11           -3.1478     2.7839     1.3615 C.ar    
  12 C12           -3.4454     3.6924     0.3624 C.ar    
  13 C13           -2.6079     3.8220    -0.7302 C.ar    
  14 C14           -1.4677     3.0480    -0.8238 C.ar    
  15 S15           -4.8952     4.6868     0.4816 S.o2    
  16 O16           -5.2277     5.0721    -0.8451 O.2     
  17 O17           -5.7911     3.9892     1.3360 O.2     
  18 N18           -4.4732     6.0750     1.2799 N.am    
  19 C19           -1.2063    -0.8837    -0.2535 C.3     
  20 C20            2.4313     5.8517     0.7568 C.ar    
  21 C21            3.3314     4.9450     0.1965 C.ar    
  22 C22            2.9584     3.6337     0.0043 C.ar    
  23 C23            1.6783     3.2114     0.3698 C.ar    
  24 C24            0.7778     4.1199     0.9307 C.ar    
  25 C25            1.1526     5.4307     1.1227 C.ar    
  26 C26            2.8358     7.2622     0.9687 C.ar    
  27 C27            1.9377     8.1700     1.5286 C.ar    
  28 C28            2.3169     9.4812     1.7242 C.ar    
  29 C29            3.5915     9.8979     1.3644 C.ar    
  30 C30            4.4881     8.9965     0.8063 C.ar    
  31 C31            4.1170     7.6824     0.6137 C.ar    
  32 O32            3.9622    11.1906     1.5585 O.3     
  33 C33            5.2880    11.5513     1.1658 C.3     
  34 C34            3.5230    -3.4222    -0.5624 C.3     
  35 C35            5.0502    -3.5153    -0.5575 C.3     
  36 H36            3.2005     0.7857     0.0400 H       
  37 H37           -1.7805     1.2933     2.0513 H       
  38 H38           -3.8043     2.6845     2.2133 H       
  39 H39           -2.8431     4.5322    -1.5091 H       
  40 H40           -0.8114     3.1531    -1.6750 H       
  41 H41           -4.9390     6.9043     1.0900 H       
  42 H42           -3.7602     6.0587     1.9373 H       
  43 H43           -1.4858    -0.9516    -1.3049 H       
  44 H44           -0.9723    -1.8787     0.1252 H       
  45 H45           -2.0350    -0.4637     0.3165 H       
  46 H46            4.3211     5.2718    -0.0865 H       
  47 H47            3.6552     2.9321    -0.4302 H       
  48 H48           -0.2122     3.7941     1.2140 H       
  49 H49            0.4564     6.1332     1.5564 H       
  50 H50            0.9459     7.8466     1.8083 H       
  51 H51            1.6216    10.1849     2.1575 H       
  52 H52            5.4786     9.3239     0.5268 H       
  53 H53            4.8165     6.9807     0.1840 H       
  54 H54            6.0079    10.9532     1.7244 H       
  55 H55            5.4134    11.3677     0.0987 H       
  56 H56            5.4539    12.6082     1.3746 H       
  57 H57            3.1191    -4.0345     0.2438 H       
  58 H58            3.1403    -3.7809    -1.5179 H       
  59 H59            5.3514    -4.5527    -0.7032 H       
  60 H60            5.4541    -2.9030    -1.3637 H       
  61 H61            5.4329    -3.1566     0.3980 H       
@<TRIPOS>BOND
   1    1    2 1
   2    1    5 1
   3    1    9 1
   4    2    3 2
   5    2   19 1
   6    3    4 1
   7    3    6 1
   8    4    5 2
   9    4   36 1
  10    5   23 1
  11    6    7 2
  12    6    8 1
  13    8   34 1
  14    9   10 ar
  15    9   14 ar
  16   10   11 ar
  17   10   37 1
  18   11   12 ar
  19   11   38 1
  20   12   13 ar
  21   12   15 1
  22   13   14 ar
  23   13   39 1
  24   14   40 1
  25   15   16 2
  26   15   17 2
  27   15   18 am
  28   18   41 1
  29   18   42 1
  30   19   43 1
  31   19   44 1
  32   19   45 1
  33   20   21 ar
  34   20   25 ar
  35   20   26 1
  36   21   22 ar
  37   21   46 1
  38   22   23 ar
  39   22   47 1
  40   23   24 ar
  41   24   25 ar
  42   24   48 1
  43   25   49 1
  44   26   27 ar
  45   26   31 ar
  46   27   28 ar
  47   27   50 1
  48   28   29 ar
  49   28   51 1
  50   29   30 ar
  51   29   32 1
  52   30   31 ar
  53   30   52 1
  54   31   53 1
  55   32   33 1
  56   33   54 1
  57   33   55 1
  58   33   56 1
  59   34   35 1
  60   34   57 1
  61   34   58 1
  62   35   59 1
  63   35   60 1
  64   35   61 1

#	End of record

