#	Name: ASD00230012
#	Creating user name:	WinNT
#	Creation time:	15. 06. 2019 18:33

#	Modifying user name:	WinNT
#	Modification time:	15. 06. 2019 18:33

#	Program:	/corina/corina34_cracker 3.40 0067  02.08.2006

@<TRIPOS>MOLECULE
ASD00230012
  22   21    0    0    0
SMALL
NO_CHARGES


@<TRIPOS>ATOM
   1 S1             0.2284     1.6774     0.3824 S.3     
   2 C2             0.1335    -0.1105     0.0911 C.3     
   3 N3            -1.4160    -2.0278    -0.1186 Du      
   4 C4            -1.3334    -0.5343    -0.0061 C.3     
   5 C5            -2.8959    -1.9637     0.1178 C.3     
   6 C6            -0.8757    -1.9524    -1.5159 C.3     
   7 C7            -1.4986    -3.5213    -0.2311 C.3     
   8 H8             1.5527     1.9039     0.4449 H       
   9 H9             0.6446    -0.3545    -0.8402 H       
  10 H10            0.6105    -0.6390     0.9165 H       
  11 H11           -0.7270    -2.1300     0.7328 H       
  12 H12           -1.8660    -0.2072     0.8869 H       
  13 H13           -1.7858    -0.0780    -0.8865 H       
  14 H14           -3.3109    -2.9714     0.0980 H       
  15 H15           -3.0892    -1.5102     1.0899 H       
  16 H16           -3.3628    -1.3630    -0.6627 H       
  17 H17            0.1258    -2.3817    -1.5418 H       
  18 H18           -1.5277    -2.5102    -2.1881 H       
  19 H19           -0.8327    -0.9105    -1.8331 H       
  20 H20           -2.1624    -3.7875    -1.0537 H       
  21 H21           -0.5048    -3.9269    -0.4203 H       
  22 H22           -1.8888    -3.9347     0.6990 H       
@<TRIPOS>BOND
   1    1    2 1
   2    1    8 1
   3    2    4 1
   4    2    9 1
   5    2   10 1
   6    3    4 1
   7    3    5 1
   8    3    6 1
   9    3    7 1
  10    3   11 1
  11    4   12 1
  12    4   13 1
  13    5   14 1
  14    5   15 1
  15    5   16 1
  16    6   17 1
  17    6   18 1
  18    6   19 1
  19    7   20 1
  20    7   21 1
  21    7   22 1

#	End of record

