#	Name: ASD01948029
#	Creating user name:	WinNT
#	Creation time:	15. 06. 2019 20:13

#	Modifying user name:	WinNT
#	Modification time:	15. 06. 2019 20:13

#	Program:	/corina/corina34_cracker 3.40 0067  02.08.2006

@<TRIPOS>MOLECULE
ASD01948029
  35   37    0    0    0
SMALL
NO_CHARGES


@<TRIPOS>ATOM
   1 C1            -0.4463     1.3627    -0.5582 C.2     
   2 C2            -0.3710    -0.0020    -0.4241 C.2     
   3 C3             0.8433    -0.6114    -0.0866 C.2     
   4 C4             1.9663     0.1847     0.1095 C.2     
   5 C5             1.8492     1.5637    -0.0357 C.2     
   6 N6             0.6652     2.1241    -0.3619 N.am    
   7 N7            -1.5482     2.1237    -0.8880 N.pl3   
   8 C8            -1.1689     3.5399    -0.9178 C.3     
   9 C9             0.3268     3.5433    -0.5631 C.3     
  10 O10            2.8281     2.2748     0.1342 O.2     
  11 N11           -1.5785    -0.8317    -0.6366 N.pl3   
  12 O12           -2.6574    -0.2994    -0.8268 O.2     
  13 O13           -1.4931    -2.0466    -0.6213 O.2     
  14 C14            3.2901    -0.4364     0.4742 C.3     
  15 N15            0.9247    -1.9872     0.0504 N.pl3   
  16 C16            0.2225    -2.6311     1.0756 C.ar    
  17 C17            0.1947    -4.0208     1.1354 C.ar    
  18 C18           -0.5001    -4.6531     2.1496 C.ar    
  19 C19           -1.1669    -3.9046     3.1038 C.ar    
  20 C20           -1.1407    -2.5229     3.0456 C.ar    
  21 C21           -0.4430    -1.8847     2.0380 C.ar    
  22 F22            0.8454    -4.7512     0.2035 F       
  23 Br23          -2.1163    -4.7727     4.4897 Br      
  24 H24           -2.4351     1.7765    -1.0719 H       
  25 H25           -1.3222     3.9543    -1.9142 H       
  26 H26           -1.7394     4.1024    -0.1787 H       
  27 H27            0.5006     4.1088     0.3524 H       
  28 H28            0.9094     3.9601    -1.3846 H       
  29 H29            3.8189    -0.7243    -0.4344 H       
  30 H30            3.8890     0.2849     1.0302 H       
  31 H31            3.1197    -1.3191     1.0906 H       
  32 H32            1.4684    -2.5045    -0.5642 H       
  33 H33           -0.5228    -5.7318     2.1971 H       
  34 H34           -1.6625    -1.9419     3.7917 H       
  35 H35           -0.4192    -0.8057     1.9968 H       
@<TRIPOS>BOND
   1    1    2 2
   2    1    6 1
   3    1    7 1
   4    2    3 1
   5    2   11 1
   6    3    4 2
   7    3   15 1
   8    4    5 1
   9    4   14 1
  10    5    6 am
  11    5   10 2
  12    6    9 1
  13    7    8 1
  14    7   24 1
  15    8    9 1
  16    8   25 1
  17    8   26 1
  18    9   27 1
  19    9   28 1
  20   11   12 2
  21   11   13 2
  22   14   29 1
  23   14   30 1
  24   14   31 1
  25   15   16 1
  26   15   32 1
  27   16   17 ar
  28   16   21 ar
  29   17   18 ar
  30   17   22 1
  31   18   19 ar
  32   18   33 1
  33   19   20 ar
  34   19   23 1
  35   20   21 ar
  36   20   34 1
  37   21   35 1

#	End of record

