#	Name: ASD05940046
#	Creating user name:	WinNT
#	Creation time:	15. 06. 2019 21:04

#	Modifying user name:	WinNT
#	Modification time:	15. 06. 2019 21:04

#	Program:	/corina/corina34_cracker 3.40 0067  02.08.2006

@<TRIPOS>MOLECULE
ASD05940046
  66   69    0    0    0
SMALL
NO_CHARGES


@<TRIPOS>ATOM
   1 N1            -0.1709     1.7235     1.3693 N.ar    
   2 C2            -0.2051     0.4018     1.3469 C.ar    
   3 N3             0.8862    -0.3283     1.1812 N.ar    
   4 C4             2.0735     0.2527     1.0288 C.ar    
   5 C5             2.1482     1.6446     1.0429 C.ar    
   6 C6             0.9803     2.3796     1.2214 C.ar    
   7 N7             3.2190    -0.5067     0.8642 N.3     
   8 C8             4.1735     0.1263    -0.0513 C.3     
   9 C9             4.4113     1.5584     0.3525 C.2     
  10 N10            3.3912     2.2779     0.8739 N.am    
  11 N11            1.0128     3.7674     1.2440 N.pl3   
  12 O12           -1.3966    -0.2257     1.4990 O.3     
  13 C13            2.8890    -1.8682     0.4219 C.3     
  14 O14            5.5063     2.0611     0.2112 O.2     
  15 C15           -2.5480     0.6022     1.6754 C.3     
  16 C16           -3.7901    -0.2778     1.8293 C.3     
  17 C17           -5.0228     0.6086     2.0182 C.3     
  18 C18            4.1517    -2.5853     0.0189 C.ar    
  19 C19            4.8637    -3.3109     0.9559 C.ar    
  20 C20            4.5949    -2.5223    -1.2888 C.ar    
  21 C21            5.7532    -3.1803    -1.6585 C.ar    
  22 C22            6.4684    -3.9006    -0.7204 C.ar    
  23 C23            6.0218    -3.9686     0.5862 C.ar    
  24 C24           -6.2649    -0.2713     2.1721 C.3     
  25 C25            6.8014    -4.7541     1.6091 C.3     
  26 N26            7.8850    -3.9197     2.1453 N.3     
  27 C27            7.3485    -2.8402     3.0012 C.3     
  28 C28            8.4192    -2.6394     4.1025 C.3     
  29 C29            8.8915    -4.0963     4.3497 C.3     
  30 C30            8.8278    -4.7259     2.9423 C.3     
  31 C31            7.1715    -1.5553     2.1897 C.3     
  32 C32            8.3263    -6.1681     3.0395 C.3     
  33 H33            5.1171    -0.4185    -0.0225 H       
  34 H34            3.7741     0.0986    -1.0651 H       
  35 H35            3.5145     3.2069     1.1243 H       
  36 H36            1.8559     4.2346     1.1348 H       
  37 H37            0.1926     4.2698     1.3691 H       
  38 H38            2.4087    -2.4087     1.2375 H       
  39 H39            2.2112    -1.8191    -0.4303 H       
  40 H40           -2.4226     1.2132     2.5693 H       
  41 H41           -2.6666     1.2494     0.8065 H       
  42 H42           -3.9155    -0.8889     0.9355 H       
  43 H43           -3.6714    -0.9251     2.6982 H       
  44 H44           -4.8974     1.2197     2.9121 H       
  45 H45           -5.1415     1.2559     1.1493 H       
  46 H46            4.5152    -3.3635     1.9768 H       
  47 H47            4.0361    -1.9594    -2.0218 H       
  48 H48            6.0992    -3.1316    -2.6805 H       
  49 H49            7.3730    -4.4149    -1.0094 H       
  50 H50           -6.3904    -0.8824     1.2783 H       
  51 H51           -6.1463    -0.9186     3.0411 H       
  52 H52           -7.1431     0.3601     2.3067 H       
  53 H53            6.1379    -5.0534     2.4204 H       
  54 H54            7.2249    -5.6421     1.1397 H       
  55 H55            6.4001    -3.1435     3.4448 H       
  56 H56            9.2393    -2.0190     3.7412 H       
  57 H57            7.9774    -2.2139     5.0036 H       
  58 H58            9.9119    -4.1109     4.7326 H       
  59 H59            8.2151    -4.6101     5.0328 H       
  60 H60            9.8154    -4.7047     2.4815 H       
  61 H61            6.4771    -1.7364     1.3693 H       
  62 H62            6.7758    -0.7702     2.8340 H       
  63 H63            8.1356    -1.2438     1.7877 H       
  64 H64            7.2948    -6.1712     3.3919 H       
  65 H65            8.3759    -6.6371     2.0568 H       
  66 H66            8.9508    -6.7236     3.7391 H       
@<TRIPOS>BOND
   1    1    2 ar
   2    1    6 ar
   3    2    3 ar
   4    2   12 1
   5    3    4 ar
   6    4    5 ar
   7    4    7 1
   8    5    6 ar
   9    5   10 1
  10    6   11 1
  11    7    8 1
  12    7   13 1
  13    8    9 1
  14    8   33 1
  15    8   34 1
  16    9   10 am
  17    9   14 2
  18   10   35 1
  19   11   36 1
  20   11   37 1
  21   12   15 1
  22   13   18 1
  23   13   38 1
  24   13   39 1
  25   15   16 1
  26   15   40 1
  27   15   41 1
  28   16   17 1
  29   16   42 1
  30   16   43 1
  31   17   24 1
  32   17   44 1
  33   17   45 1
  34   18   19 ar
  35   18   20 ar
  36   19   23 ar
  37   19   46 1
  38   20   21 ar
  39   20   47 1
  40   21   22 ar
  41   21   48 1
  42   22   23 ar
  43   22   49 1
  44   23   25 1
  45   24   50 1
  46   24   51 1
  47   24   52 1
  48   25   26 1
  49   25   53 1
  50   25   54 1
  51   26   27 1
  52   26   30 1
  53   27   28 1
  54   27   31 1
  55   27   55 1
  56   28   29 1
  57   28   56 1
  58   28   57 1
  59   29   30 1
  60   29   58 1
  61   29   59 1
  62   30   32 1
  63   30   60 1
  64   31   61 1
  65   31   62 1
  66   31   63 1
  67   32   64 1
  68   32   65 1
  69   32   66 1

#	End of record

