#	Name: ASD01200054
#	Creating user name:	WinNT
#	Creation time:	15. 06. 2019 19:08

#	Modifying user name:	WinNT
#	Modification time:	15. 06. 2019 19:08

#	Program:	/corina/corina34_cracker 3.40 0067  02.08.2006

@<TRIPOS>MOLECULE
ASD01200054
  36   38    0    0    0
SMALL
NO_CHARGES


@<TRIPOS>ATOM
   1 C1             0.0381     1.2891    -0.1766 C.ar    
   2 C2            -0.1902    -0.0378     0.1759 C.ar    
   3 C3            -1.4655    -0.5615     0.1305 C.ar    
   4 C4            -2.5324     0.2334    -0.2681 C.ar    
   5 C5            -2.3095     1.5724    -0.6250 C.ar    
   6 C6            -1.0154     2.0959    -0.5710 C.ar    
   7 C7            -3.4358     2.4233    -1.0493 C.2     
   8 N8            -3.2449     3.7419    -1.2526 N.am    
   9 C9            -4.3045     4.5425    -1.6519 C.2     
  10 N10           -4.2854     5.8363    -1.8908 N.2     
  11 C11           -5.4178     6.3871    -2.2601 C.2     
  12 N12           -6.4637     5.6188    -2.3609 N.2     
  13 S13           -5.9309     4.0581    -1.9501 S.3     
  14 O14           -4.5372     1.9356    -1.2160 O.2     
  15 S15            1.6719     1.9460    -0.1137 S.3     
  16 N16           -3.8181    -0.2961    -0.3140 N.pl3   
  17 C17            2.2556     1.4674    -1.7058 C.2     
  18 N18            1.5723     0.8318    -2.6291 N.2     
  19 N19            2.3086     0.6449    -3.6659 N.2     
  20 C20            3.4953     1.1457    -3.4680 C.2     
  21 N21            3.5025     1.6927    -2.2150 N.pl3   
  22 C22            4.6193     2.3709    -1.5523 C.3     
  23 C23           -5.5046     7.8619    -2.5574 C.3     
  24 H24            0.6355    -0.6608     0.4864 H       
  25 H25           -1.6347    -1.5922     0.4052 H       
  26 H26           -0.8361     3.1254    -0.8438 H       
  27 H27           -2.3663     4.1309    -1.1197 H       
  28 H28           -3.9454    -1.2537    -0.4022 H       
  29 H29           -4.5872     0.2922    -0.2577 H       
  30 H30            4.3191     1.1347    -4.1663 H       
  31 H31            4.5828     3.4366    -1.7784 H       
  32 H32            4.5449     2.2254    -0.4747 H       
  33 H33            5.5610     1.9555    -1.9110 H       
  34 H34           -5.2945     8.0326    -3.6133 H       
  35 H35           -6.5068     8.2213    -2.3236 H       
  36 H36           -4.7754     8.3984    -1.9504 H       
@<TRIPOS>BOND
   1    1    2 ar
   2    1   15 1
   3    1    6 ar
   4    2    3 ar
   5    2   24 1
   6    3    4 ar
   7    3   25 1
   8    4    5 ar
   9    4   16 1
  10    5    6 ar
  11    5    7 1
  12    6   26 1
  13    7    8 am
  14    7   14 2
  15    8    9 1
  16    8   27 1
  17    9   10 2
  18    9   13 1
  19   10   11 1
  20   11   12 2
  21   11   23 1
  22   12   13 1
  23   15   17 1
  24   16   28 1
  25   16   29 1
  26   17   18 2
  27   17   21 1
  28   18   19 1
  29   19   20 2
  30   20   21 1
  31   20   30 1
  32   21   22 1
  33   22   31 1
  34   22   32 1
  35   22   33 1
  36   23   34 1
  37   23   35 1
  38   23   36 1

#	End of record

