#	Name: ASD01948185
#	Creating user name:	WinNT
#	Creation time:	15. 06. 2019 20:13

#	Modifying user name:	WinNT
#	Modification time:	15. 06. 2019 20:13

#	Program:	/corina/corina34_cracker 3.40 0067  02.08.2006

@<TRIPOS>MOLECULE
ASD01948185
  46   47    0    0    0
SMALL
NO_CHARGES


@<TRIPOS>ATOM
   1 O1             1.5262    -0.8487    -0.9423 O.3     
   2 C2             0.2762    -1.5316    -0.8269 C.3     
   3 C3             0.0469    -2.3894    -2.0729 C.3     
   4 C4             0.2974    -2.4281     0.4127 C.3     
   5 C5             0.3939    -1.5597     1.6686 C.3     
   6 S6            -1.0254    -0.4737     1.9799 S.o2    
   7 O7            -0.9820     0.0360     3.3056 O.2     
   8 O8            -1.2475     0.3868     0.8711 O.2     
   9 O9            -2.2267    -1.4083     1.9762 O.3     
  10 C10            1.1100    -2.1522     2.8840 C.3     
  11 C11            1.7784    -1.0441     2.0664 C.3     
  12 O12           -0.1178    -1.5415    -3.2113 O.3     
  13 C13           -0.3392    -2.2468    -4.4342 C.3     
  14 C14           -0.4982    -1.2597    -5.5617 C.ar    
  15 C15            0.6096    -0.8394    -6.2738 C.ar    
  16 C16            0.4637     0.0661    -7.3081 C.ar    
  17 C17           -0.7900     0.5510    -7.6305 C.ar    
  18 C18           -1.8979     0.1300    -6.9190 C.ar    
  19 C19           -1.7526    -0.7788    -5.8876 C.ar    
  20 C20           -2.3352    -2.2200     3.1473 C.3     
  21 C21           -3.7770    -2.1880     3.6582 C.3     
  22 C22           -1.9464    -3.6602     2.8075 C.3     
  23 H23            2.2891    -1.4366    -1.0283 H       
  24 H24           -0.5289    -0.8027    -0.7344 H       
  25 H25            0.9057    -3.0425    -2.2275 H       
  26 H26           -0.8498    -2.9942    -1.9376 H       
  27 H27           -0.6176    -3.0193     0.4492 H       
  28 H28            1.1587    -3.0944     0.3646 H       
  29 H29            0.7284    -1.8892     3.8706 H       
  30 H30            1.5123    -3.1608     2.7888 H       
  31 H31            2.6207    -1.3239     1.4335 H       
  32 H32            1.8365    -0.0526     2.5154 H       
  33 H33            0.5117    -2.8970    -4.6378 H       
  34 H34           -1.2438    -2.8487    -4.3479 H       
  35 H35            1.5891    -1.2183    -6.0219 H       
  36 H36            1.3293     0.3950    -7.8640 H       
  37 H37           -0.9039     1.2590    -8.4381 H       
  38 H38           -2.8774     0.5091    -7.1707 H       
  39 H39           -2.6181    -1.1077    -5.3317 H       
  40 H40           -1.6677    -1.8359     3.9187 H       
  41 H41           -4.4444    -2.5721     2.8868 H       
  42 H42           -3.8597    -2.8071     4.5515 H       
  43 H43           -4.0540    -1.1620     3.9004 H       
  44 H44           -0.8930    -3.6962     2.5295 H       
  45 H45           -2.1148    -4.2967     3.6761 H       
  46 H46           -2.5542    -4.0138     1.9746 H       
@<TRIPOS>BOND
   1    1    2 1
   2    1   23 1
   3    2    3 1
   4    2    4 1
   5    2   24 1
   6    3   12 1
   7    3   25 1
   8    3   26 1
   9    4    5 1
  10    4   27 1
  11    4   28 1
  12    5    6 1
  13    5   10 1
  14    5   11 1
  15    6    7 2
  16    6    8 2
  17    6    9 1
  18    9   20 1
  19   10   11 1
  20   10   29 1
  21   10   30 1
  22   11   31 1
  23   11   32 1
  24   12   13 1
  25   13   14 1
  26   13   33 1
  27   13   34 1
  28   14   15 ar
  29   14   19 ar
  30   15   16 ar
  31   15   35 1
  32   16   17 ar
  33   16   36 1
  34   17   18 ar
  35   17   37 1
  36   18   19 ar
  37   18   38 1
  38   19   39 1
  39   20   21 1
  40   20   22 1
  41   20   40 1
  42   21   41 1
  43   21   42 1
  44   21   43 1
  45   22   44 1
  46   22   45 1
  47   22   46 1

#	End of record

