#	Name: ASD03430426
#	Creating user name:	WinNT
#	Creation time:	15. 06. 2019 20:41

#	Modifying user name:	WinNT
#	Modification time:	15. 06. 2019 20:41

#	Program:	/corina/corina34_cracker 3.40 0067  02.08.2006

@<TRIPOS>MOLECULE
ASD03430426
  61   66    0    0    0
SMALL
NO_CHARGES


@<TRIPOS>ATOM
   1 O1            -1.6460     3.5581    -1.7068 O.3     
   2 C2            -2.0590     2.1925    -1.8033 C.3     
   3 C3            -1.5226     1.4164    -0.6275 C.2     
   4 N4            -0.3444     1.7728    -0.0708 N.am    
   5 C5             0.3397     2.8874    -0.5819 C.ar    
   6 C6            -0.3381     3.7819    -1.4094 C.ar    
   7 C7             1.6718     3.1022    -0.2715 C.ar    
   8 C8             2.3291     4.2063    -0.7831 C.ar    
   9 C9             1.6567     5.0980    -1.6054 C.ar    
  10 C10            0.3218     4.8852    -1.9199 C.ar    
  11 O11           -2.1465     0.4760    -0.1828 O.2     
  12 C12            0.2110     1.0079     1.0484 C.3     
  13 O13            2.3067     6.1827    -2.1049 O.3     
  14 N14            5.1731     5.7149    -1.7608 N.am    
  15 C15            4.6151     4.4938    -1.7070 C.2     
  16 C16            3.7790     4.4411    -0.4460 C.3     
  17 C17            3.9640     5.8067     0.1747 C.ar    
  18 C18            3.4735     6.3877     1.3224 C.ar    
  19 C19            3.8249     7.6874     1.6425 C.ar    
  20 C20            4.6681     8.3976     0.8073 C.ar    
  21 C21            5.1609     7.8178    -0.3432 C.ar    
  22 C22            4.8114     6.5094    -0.6722 C.ar    
  23 O23            4.7546     3.6016    -2.5168 O.2     
  24 O24            4.2595     3.4203     0.4310 O.3     
  25 C25            6.0640     6.1590    -2.8356 C.3     
  26 C26            7.3240     6.7317    -2.2393 C.ar    
  27 C27            7.8809     7.8795    -2.7716 C.ar    
  28 C28            9.0367     8.4048    -2.2247 C.ar    
  29 C29            9.6353     7.7825    -1.1452 C.ar    
  30 C30            9.0779     6.6352    -0.6123 C.ar    
  31 C31            7.9197     6.1124    -1.1566 C.ar    
  32 C32            6.4126     4.9865    -3.7158 C.ar    
  33 C33            6.0500     4.9916    -5.0497 C.ar    
  34 C34            6.3697     3.9161    -5.8571 C.ar    
  35 C35            7.0526     2.8356    -5.3306 C.ar    
  36 C36            7.4161     2.8308    -3.9969 C.ar    
  37 C37            7.1001     3.9083    -3.1906 C.ar    
  38 H38           -3.1479     2.1420    -1.8049 H       
  39 H39           -1.6750     1.7618    -2.7280 H       
  40 H40            2.1965     2.4091     0.3692 H       
  41 H41           -0.2008     5.5801    -2.5606 H       
  42 H42           -0.4619     0.1873     1.2972 H       
  43 H43            1.1846     0.6068     0.7667 H       
  44 H44            0.3237     1.6606     1.9141 H       
  45 H45            2.7361     6.0259    -2.9570 H       
  46 H46            2.8150     5.8301     1.9720 H       
  47 H47            3.4415     8.1461     2.5420 H       
  48 H48            4.9419     9.4120     1.0571 H       
  49 H49            5.8188     8.3789    -0.9903 H       
  50 H50            4.1923     2.5264     0.0683 H       
  51 H51            5.5634     6.9233    -3.4300 H       
  52 H52            7.4132     8.3657    -3.6150 H       
  53 H53            9.4721     9.3011    -2.6410 H       
  54 H54           10.5387     8.1925    -0.7183 H       
  55 H55            9.5458     6.1489     0.2308 H       
  56 H56            7.4822     5.2181    -0.7379 H       
  57 H57            5.5165     5.8358    -5.4610 H       
  58 H58            6.0858     3.9198    -6.8990 H       
  59 H59            7.3018     1.9950    -5.9612 H       
  60 H60            7.9492     1.9865    -3.5855 H       
  61 H61            7.3873     3.9062    -2.1495 H       
@<TRIPOS>BOND
   1    1    2 1
   2    1    6 1
   3    2    3 1
   4    2   38 1
   5    2   39 1
   6    3    4 am
   7    3   11 2
   8    4    5 1
   9    4   12 1
  10    5    6 ar
  11    5    7 ar
  12    6   10 ar
  13    7    8 ar
  14    7   40 1
  15    8    9 ar
  16    8   16 1
  17    9   10 ar
  18    9   13 1
  19   10   41 1
  20   12   42 1
  21   12   43 1
  22   12   44 1
  23   13   45 1
  24   14   15 am
  25   14   22 1
  26   14   25 1
  27   15   16 1
  28   15   23 2
  29   16   17 1
  30   16   24 1
  31   17   18 ar
  32   17   22 ar
  33   18   19 ar
  34   18   46 1
  35   19   20 ar
  36   19   47 1
  37   20   21 ar
  38   20   48 1
  39   21   22 ar
  40   21   49 1
  41   24   50 1
  42   25   26 1
  43   25   32 1
  44   25   51 1
  45   26   27 ar
  46   26   31 ar
  47   27   28 ar
  48   27   52 1
  49   28   29 ar
  50   28   53 1
  51   29   30 ar
  52   29   54 1
  53   30   31 ar
  54   30   55 1
  55   31   56 1
  56   32   33 ar
  57   32   37 ar
  58   33   34 ar
  59   33   57 1
  60   34   35 ar
  61   34   58 1
  62   35   36 ar
  63   35   59 1
  64   36   37 ar
  65   36   60 1
  66   37   61 1

#	End of record

