#	Name: ASD01912073
#	Creating user name:	WinNT
#	Creation time:	15. 06. 2019 19:59

#	Modifying user name:	WinNT
#	Modification time:	15. 06. 2019 19:59

#	Program:	/corina/corina34_cracker 3.40 0067  02.08.2006

@<TRIPOS>MOLECULE
ASD01912073
  55   59    0    0    0
SMALL
NO_CHARGES


@<TRIPOS>ATOM
   1 C1             0.0632     1.3940     0.2341 C.ar    
   2 C2             0.0771     0.0112     0.2738 C.ar    
   3 C3             1.2416    -0.6653    -0.0840 C.ar    
   4 N4             2.3238     0.0044    -0.4575 N.ar    
   5 C5             2.3398     1.3211    -0.5048 C.ar    
   6 C6             1.2181     2.0576    -0.1634 C.ar    
   7 C7             1.2713    -2.1482    -0.0462 C.2     
   8 N8             0.2719    -2.9310     0.3040 N.2     
   9 C9             2.3690    -2.9583    -0.3838 C.2     
  10 C10            1.9934    -4.2590    -0.2176 C.2     
  11 N11            0.6977    -4.2618     0.2081 N.pl3   
  12 C12            2.8372    -5.4505    -0.4589 C.ar    
  13 C13           -0.1070    -5.4479     0.5111 C.3     
  14 C14           -0.0256    -5.7469     1.9859 C.2     
  15 N15           -0.6915    -6.8010     2.4976 N.am    
  16 O16            0.6391    -5.0389     2.7123 O.2     
  17 C17           -0.6257    -7.1105     3.9339 C.3     
  18 C18           -1.5083    -7.6687     1.6354 C.3     
  19 C19           -2.9009    -7.8039     2.2604 C.3     
  20 N20           -2.7680    -8.2579     3.6511 N.3     
  21 C21           -2.0549    -7.2688     4.4637 C.3     
  22 C22           -4.0115    -8.5485     4.2014 C.ar    
  23 N23           -5.1112    -8.4002     3.4770 N.ar    
  24 C24           -4.1068    -9.0028     5.5163 C.ar    
  25 C25           -5.3692    -9.2788     6.0174 C.ar    
  26 C26           -6.4596    -9.0864     5.1809 C.ar    
  27 N27           -6.2771    -8.6580     3.9477 N.ar    
  28 F28            1.2461     3.4073    -0.2152 F       
  29 C29            3.9331    -5.3696    -1.3183 C.ar    
  30 C30            2.5427    -6.6570     0.1766 C.ar    
  31 C31            3.3323    -7.7647    -0.0517 C.ar    
  32 C32            4.4164    -7.6806    -0.9107 C.ar    
  33 C33            4.7165    -6.4831    -1.5399 C.ar    
  34 F34            5.1867    -8.7684    -1.1310 F       
  35 H35           -0.8262     1.9452     0.5015 H       
  36 H36           -0.8025    -0.5365     0.5783 H       
  37 H37            3.2394     1.8325    -0.8139 H       
  38 H38            3.3368    -2.6127    -0.7161 H       
  39 H39           -1.1450    -5.2631     0.2346 H       
  40 H40            0.2734    -6.2991    -0.0537 H       
  41 H41           -0.0748    -8.0391     4.0835 H       
  42 H42           -0.1277    -6.2970     4.4614 H       
  43 H43           -1.5935    -7.2240     0.6439 H       
  44 H44           -1.0437    -8.6518     1.5602 H       
  45 H45           -3.4042    -6.8373     2.2398 H       
  46 H46           -3.4844    -8.5303     1.6948 H       
  47 H47           -2.0190    -7.6067     5.4994 H       
  48 H48           -2.5741    -6.3120     4.4107 H       
  49 H49           -3.2246    -9.1358     6.1249 H       
  50 H50           -5.5004    -9.6336     7.0290 H       
  51 H51           -7.4577    -9.2916     5.5390 H       
  52 H52            4.1676    -4.4367    -1.8095 H       
  53 H53            1.6982    -6.7234     0.8465 H       
  54 H54            3.1054    -8.6991     0.4401 H       
  55 H55            5.5623    -6.4227    -2.2088 H       
@<TRIPOS>BOND
   1    1    2 ar
   2    1    6 ar
   3    1   35 1
   4    2    3 ar
   5    2   36 1
   6    3    4 ar
   7    3    7 1
   8    4    5 ar
   9    5    6 ar
  10    5   37 1
  11    6   28 1
  12    7    8 2
  13    7    9 1
  14    8   11 1
  15    9   10 2
  16    9   38 1
  17   10   11 1
  18   10   12 1
  19   11   13 1
  20   12   29 ar
  21   12   30 ar
  22   13   14 1
  23   13   39 1
  24   13   40 1
  25   14   15 am
  26   14   16 2
  27   15   17 1
  28   15   18 1
  29   17   21 1
  30   17   41 1
  31   17   42 1
  32   18   19 1
  33   18   43 1
  34   18   44 1
  35   19   20 1
  36   19   45 1
  37   19   46 1
  38   20   21 1
  39   20   22 1
  40   21   47 1
  41   21   48 1
  42   22   23 ar
  43   22   24 ar
  44   23   27 ar
  45   24   25 ar
  46   24   49 1
  47   25   26 ar
  48   25   50 1
  49   26   27 ar
  50   26   51 1
  51   29   33 ar
  52   29   52 1
  53   30   31 ar
  54   30   53 1
  55   31   32 ar
  56   31   54 1
  57   32   33 ar
  58   32   34 1
  59   33   55 1

#	End of record

