#	Name: ASD03490018
#	Creating user name:	WinNT
#	Creation time:	15. 06. 2019 20:42

#	Modifying user name:	WinNT
#	Modification time:	15. 06. 2019 20:42

#	Program:	/corina/corina34_cracker 3.40 0067  02.08.2006

@<TRIPOS>MOLECULE
ASD03490018
  69   70    0    0    0
SMALL
NO_CHARGES


@<TRIPOS>ATOM
   1 C1             2.8307     5.4958    -5.2281 C.3     
   2 C2             2.8227     4.6766    -6.5203 C.3     
   3 C3             3.3015     5.5507    -7.6812 C.3     
   4 C4             2.3673     6.7527    -7.8336 C.3     
   5 C5             2.3752     7.5719    -6.5414 C.3     
   6 C6             1.8964     6.6979    -5.3805 C.3     
   7 O7             2.3763     4.6663    -4.1264 O.3     
   8 C8             2.8707     4.9461    -2.9069 C.2     
   9 O9             2.4905     4.2155    -1.8431 O.3     
  10 C10            3.1383     4.5082    -0.5770 C.3     
  11 O11            2.6896     5.8008    -0.0911 O.3     
  12 C12            1.3816     5.9286     0.1820 C.2     
  13 C13            0.8633     7.1969     0.8096 C.3     
  14 O14            3.6601     5.8581    -2.7663 O.2     
  15 C15            2.7768     3.4264     0.4429 C.3     
  16 O16            0.6197     5.0268    -0.0755 O.2     
  17 O17           -0.5264     7.0479     1.1073 O.3     
  18 C18            1.6347     7.4795     2.1013 C.3     
  19 O19            1.0420     8.2856    -0.0986 O.3     
  20 C20            0.5580     9.5383     0.3898 C.3     
  21 C21            1.3174     9.9152     1.6646 C.3     
  22 C22            1.1439     8.8007     2.7013 C.3     
  23 C23            0.7755    10.6183    -0.6719 C.3     
  24 C24           -0.1114    10.3277    -1.8842 C.3     
  25 C25            0.0120    11.4719    -2.8924 C.3     
  26 O26           -0.9025    11.2584    -3.9695 O.3     
  27 O27            0.3050     9.1058    -2.4971 O.3     
  28 C28            2.8032    10.0874     1.3426 C.3     
  29 O29            3.5283    10.3230     2.5512 O.3     
  30 O30           -0.2368     8.6835     3.0506 O.3     
  31 N31            2.9780    11.2267     0.4383 N.am    
  32 O32            4.5217    10.1467    -0.7333 O.2     
  33 C33            3.8667    11.1547    -0.5724 C.2     
  34 C34            4.0466    12.3266    -1.5026 C.3     
  35 H35            3.8430     5.8458    -5.0260 H       
  36 H36            3.4883     3.8203    -6.4117 H       
  37 H37            1.8104     4.3267    -6.7224 H       
  38 H38            4.3138     5.9007    -7.4791 H       
  39 H39            3.2959     4.9671    -8.6018 H       
  40 H40            2.7084     7.3754    -8.6607 H       
  41 H41            1.3550     6.4028    -8.0358 H       
  42 H42            3.3875     7.9219    -6.3393 H       
  43 H43            1.7096     8.4283    -6.6500 H       
  44 H44            0.8841     6.3479    -5.5827 H       
  45 H45            1.9021     7.2815    -4.4600 H       
  46 H46            4.2190     4.5281    -0.7178 H       
  47 H47            3.1137     2.4561     0.0781 H       
  48 H48            3.2631     3.6461     1.3933 H       
  49 H49            1.6961     3.4065     0.5837 H       
  50 H50           -1.0772     6.8668     0.3335 H       
  51 H51            1.4638     6.6710     2.8120 H       
  52 H52            2.6997     7.5530     1.8810 H       
  53 H53           -0.5060     9.4554     0.6116 H       
  54 H54            0.9195    10.8485     2.0631 H       
  55 H55            1.7277     9.0363     3.5911 H       
  56 H56            0.5165    11.5926    -0.2574 H       
  57 H57            1.8213    10.6206    -0.9790 H       
  58 H58           -1.1489    10.2375    -1.5622 H       
  59 H59           -0.2204    12.4164    -2.4004 H       
  60 H60            1.0297    11.5055    -3.2811 H       
  61 H61           -0.8788    11.9470    -4.6480 H       
  62 H62            1.2204     9.1141    -2.8087 H       
  63 H63            3.1785     9.1828     0.8641 H       
  64 H64            3.1983    11.0703     3.0686 H       
  65 H65           -0.4200     7.9950     3.7045 H       
  66 H66            2.4541    12.0329     0.5669 H       
  67 H67            4.8211    12.9859    -1.1108 H       
  68 H68            4.3407    11.9662    -2.4884 H       
  69 H69            3.1080    12.8753    -1.5814 H       
@<TRIPOS>BOND
   1    1    2 1
   2    1    7 1
   3    1    6 1
   4    1   35 1
   5    2    3 1
   6    2   36 1
   7    2   37 1
   8    3    4 1
   9    3   38 1
  10    3   39 1
  11    4    5 1
  12    4   40 1
  13    4   41 1
  14    5    6 1
  15    5   42 1
  16    5   43 1
  17    6   44 1
  18    6   45 1
  19    7    8 1
  20    8    9 1
  21    8   14 2
  22    9   10 1
  23   10   11 1
  24   10   15 1
  25   10   46 1
  26   11   12 1
  27   12   13 1
  28   12   16 2
  29   13   17 1
  30   13   18 1
  31   13   19 1
  32   15   47 1
  33   15   48 1
  34   15   49 1
  35   17   50 1
  36   18   22 1
  37   18   51 1
  38   18   52 1
  39   19   20 1
  40   20   21 1
  41   20   23 1
  42   20   53 1
  43   21   22 1
  44   21   28 1
  45   21   54 1
  46   22   30 1
  47   22   55 1
  48   23   24 1
  49   23   56 1
  50   23   57 1
  51   24   25 1
  52   24   27 1
  53   24   58 1
  54   25   26 1
  55   25   59 1
  56   25   60 1
  57   26   61 1
  58   27   62 1
  59   28   29 1
  60   28   31 1
  61   28   63 1
  62   29   64 1
  63   30   65 1
  64   31   33 am
  65   31   66 1
  66   32   33 2
  67   33   34 1
  68   34   67 1
  69   34   68 1
  70   34   69 1

#	End of record

