#	Name: ASD01885326
#	Creating user name:	WinNT
#	Creation time:	15. 06. 2019 19:49

#	Modifying user name:	WinNT
#	Modification time:	15. 06. 2019 19:49

#	Program:	/corina/corina34_cracker 3.40 0067  02.08.2006

@<TRIPOS>MOLECULE
ASD01885326
  53   56    0    0    0
SMALL
NO_CHARGES


@<TRIPOS>ATOM
   1 C1             0.0815     1.3293     0.5622 C.2     
   2 C2             1.1015    -0.5716    -0.4625 C.2     
   3 C3             2.2988     0.1587    -0.5556 C.2     
   4 C4             2.3613     1.4273    -0.0994 C.2     
   5 N5             1.2653     2.0176     0.4575 N.pl3   
   6 C6             1.0293     3.2473     0.9901 C.2     
   7 N7            -0.2184     3.2735     1.3819 N.2     
   8 N8            -0.7890     2.1481     1.1298 N.2     
   9 C9             2.0241     4.3732     1.1079 C.3     
  10 C10            1.0377    -1.9878    -0.9737 C.3     
  11 C11            1.9641     5.2406    -0.1511 C.3     
  12 N12            0.7337    -1.9764    -2.4108 N.3     
  13 C13            0.8958    -3.3156    -2.9940 C.3     
  14 C14            0.4942    -3.2781    -4.4704 C.3     
  15 N15            1.3268    -2.2947    -5.1771 N.3     
  16 C16            1.1646    -0.9556    -4.5939 C.3     
  17 C17            1.5662    -0.9931    -3.1175 C.3     
  18 C18            1.0377    -2.2839    -6.5435 C.ar    
  19 C19            1.7186    -1.4205    -7.3923 C.ar    
  20 C20            1.4307    -1.4127    -8.7430 C.ar    
  21 C21            0.4657    -2.2632    -9.2507 C.ar    
  22 C22           -0.2141    -3.1241    -8.4086 C.ar    
  23 C23            0.0727    -3.1407    -7.0577 C.ar    
  24 C24            0.0007     0.0048     0.0907 C.2     
  25 C25            2.9741     6.3836    -0.0315 C.3     
  26 C26           -1.2903    -0.7651     0.1982 C.3     
  27 F27           -1.2143    -1.6549     1.2751 F       
  28 F28           -2.3491     0.1260     0.4035 F       
  29 F29           -1.5061    -1.4812    -0.9841 F       
  30 H30            3.1736    -0.2980    -0.9944 H       
  31 H31            3.2866     1.9791    -0.1757 H       
  32 H32            1.7831     4.9812     1.9799 H       
  33 H33            3.0274     3.9615     1.2180 H       
  34 H34            1.9977    -2.4770    -0.8092 H       
  35 H35            0.2570    -2.5313    -0.4414 H       
  36 H36            2.2051     4.6325    -1.0230 H       
  37 H37            0.9608     5.6522    -0.2612 H       
  38 H38            1.9372    -3.6259    -2.9082 H       
  39 H39            0.2600    -4.0233    -2.4620 H       
  40 H40            0.6412    -4.2636    -4.9124 H       
  41 H41           -0.5548    -2.9941    -4.5548 H       
  42 H42            1.8004    -0.2479    -5.1259 H       
  43 H43            0.1233    -0.6453    -4.6797 H       
  44 H44            1.4192    -0.0076    -2.6755 H       
  45 H45            2.6152    -1.2770    -3.0331 H       
  46 H46            2.4721    -0.7558    -6.9964 H       
  47 H47            1.9594    -0.7414    -9.4034 H       
  48 H48            0.2422    -2.2549   -10.3073 H       
  49 H49           -0.9671    -3.7870    -8.8083 H       
  50 H50           -0.4583    -3.8135    -6.4006 H       
  51 H51            2.9313     7.0015    -0.9284 H       
  52 H52            2.7331     6.9916     0.8405 H       
  53 H53            3.9773     5.9720     0.0786 H       
@<TRIPOS>BOND
   1    1   24 1
   2    1    5 1
   3    1    8 2
   4    2    3 1
   5    2   10 1
   6    2   24 2
   7    3    4 2
   8    3   30 1
   9    4    5 1
  10    4   31 1
  11    5    6 1
  12    6    7 2
  13    6    9 1
  14    7    8 1
  15    9   11 1
  16    9   32 1
  17    9   33 1
  18   10   12 1
  19   10   34 1
  20   10   35 1
  21   11   25 1
  22   11   36 1
  23   11   37 1
  24   12   13 1
  25   12   17 1
  26   13   14 1
  27   13   38 1
  28   13   39 1
  29   14   15 1
  30   14   40 1
  31   14   41 1
  32   15   16 1
  33   15   18 1
  34   16   17 1
  35   16   42 1
  36   16   43 1
  37   17   44 1
  38   17   45 1
  39   18   19 ar
  40   18   23 ar
  41   19   20 ar
  42   19   46 1
  43   20   21 ar
  44   20   47 1
  45   21   22 ar
  46   21   48 1
  47   22   23 ar
  48   22   49 1
  49   23   50 1
  50   24   26 1
  51   25   51 1
  52   25   52 1
  53   25   53 1
  54   26   27 1
  55   26   28 1
  56   26   29 1

#	End of record

