#	Name: ASD09810003
#	Creating user name:	WinNT
#	Creation time:	15. 06. 2019 21:24

#	Modifying user name:	WinNT
#	Modification time:	15. 06. 2019 21:24

#	Program:	/corina/corina34_cracker 3.40 0067  02.08.2006

@<TRIPOS>MOLECULE
ASD09810003
  60   62    0    0    0
SMALL
NO_CHARGES


@<TRIPOS>ATOM
   1 C1            -0.1745     1.3629    -0.6643 C.3     
   2 N2            -0.0706    -0.0711    -0.3653 N.3     
   3 C3             0.8524    -0.7409    -1.2904 C.3     
   4 C4             2.2534    -0.1446    -1.1362 C.3     
   5 C5             2.2000     1.3560    -1.4361 C.3     
   6 C6             1.1958     2.0219    -0.4913 C.3     
   7 C7            -1.3930    -0.7104    -0.3863 C.3     
   8 C8            -1.2329    -2.2199    -0.1949 C.3     
   9 C9            -2.2526    -0.1412     0.7443 C.3     
  10 O10            3.4941     1.9288    -1.2384 O.3     
  11 C11            3.7764     3.0683    -1.9251 C.ar    
  12 C12            2.7945     3.6821    -2.6783 C.ar    
  13 C13            5.0550     3.6202    -1.8642 C.ar    
  14 C14            5.3464     4.7834    -2.5640 C.ar    
  15 C15            4.3729     5.3976    -3.3214 C.ar    
  16 C16            3.0880     4.8527    -3.3826 C.ar    
  17 C17            2.0440     5.5095    -4.1935 C.2     
  18 N18            2.3299     6.6360    -4.8759 N.am    
  19 O19            0.9261     5.0342    -4.2458 O.2     
  20 C20            1.2937     7.2878    -5.6807 C.3     
  21 C21            1.8666     8.5176    -6.3367 C.2     
  22 O22            1.8822     9.7609    -5.8359 O.3     
  23 C23            2.4728     8.5838    -7.5461 C.2     
  24 C24            2.8185     9.9481    -7.6809 C.2     
  25 N25            2.4117    10.5392    -6.5948 N.2     
  26 C26            3.5222    10.5900    -8.8487 C.3     
  27 O27            6.0177     3.0191    -1.1184 O.3     
  28 C28            7.3055     3.6380    -1.1006 C.3     
  29 C29            2.6804    11.7545    -9.3741 C.3     
  30 H30           -0.5145     1.4961    -1.6913 H       
  31 H31           -0.8885     1.8252     0.0173 H       
  32 H32            0.8843    -1.8065    -1.0636 H       
  33 H33            0.5076    -0.5978    -2.3145 H       
  34 H34            2.6045    -0.2995    -0.1159 H       
  35 H35            2.9348    -0.6312    -1.8340 H       
  36 H36            1.8862     1.5101    -2.4686 H       
  37 H37            1.1217     3.0833    -0.7284 H       
  38 H38            1.5303     1.9011     0.5391 H       
  39 H39           -1.8760    -0.5147    -1.3437 H       
  40 H40           -0.7499    -2.4155     0.7625 H       
  41 H41           -2.2142    -2.6942    -0.2104 H       
  42 H42           -0.6205    -2.6253    -1.0003 H       
  43 H43           -1.7696    -0.3369     1.7016 H       
  44 H44           -2.3667     0.9342     0.6079 H       
  45 H45           -3.2339    -0.6156     0.7287 H       
  46 H46            1.8023     3.2579    -2.7231 H       
  47 H47            6.3382     5.2079    -2.5144 H       
  48 H48            4.6022     6.3025    -3.8645 H       
  49 H49            3.2217     7.0152    -4.8341 H       
  50 H50            0.9414     6.5978    -6.4474 H       
  51 H51            0.4607     7.5733    -5.0383 H       
  52 H52            2.6512     7.7804    -8.2455 H       
  53 H53            4.4953    10.9611    -8.5272 H       
  54 H54            3.6579     9.8534    -9.6407 H       
  55 H55            7.2171     4.6495    -0.7043 H       
  56 H56            7.9786     3.0580    -0.4692 H       
  57 H57            7.7033     3.6785    -2.1146 H       
  58 H58            3.1894    12.2188   -10.2188 H       
  59 H59            1.7073    11.3833    -9.6957 H       
  60 H60            2.5447    12.4910    -8.5822 H       
@<TRIPOS>BOND
   1    1    2 1
   2    1    6 1
   3    1   30 1
   4    1   31 1
   5    2    3 1
   6    2    7 1
   7    3    4 1
   8    3   32 1
   9    3   33 1
  10    4    5 1
  11    4   34 1
  12    4   35 1
  13    5    6 1
  14    5   10 1
  15    5   36 1
  16    6   37 1
  17    6   38 1
  18    7    8 1
  19    7    9 1
  20    7   39 1
  21    8   40 1
  22    8   41 1
  23    8   42 1
  24    9   43 1
  25    9   44 1
  26    9   45 1
  27   10   11 1
  28   11   12 ar
  29   11   13 ar
  30   12   16 ar
  31   12   46 1
  32   13   14 ar
  33   13   27 1
  34   14   15 ar
  35   14   47 1
  36   15   16 ar
  37   15   48 1
  38   16   17 1
  39   17   18 am
  40   17   19 2
  41   18   20 1
  42   18   49 1
  43   20   21 1
  44   20   50 1
  45   20   51 1
  46   21   22 1
  47   21   23 2
  48   22   25 1
  49   23   24 1
  50   23   52 1
  51   24   25 2
  52   24   26 1
  53   26   29 1
  54   26   53 1
  55   26   54 1
  56   27   28 1
  57   28   55 1
  58   28   56 1
  59   28   57 1
  60   29   58 1
  61   29   59 1
  62   29   60 1

#	End of record

