#	Name: ASD03091665
#	Creating user name:	WinNT
#	Creation time:	15. 06. 2019 20:31

#	Modifying user name:	WinNT
#	Modification time:	15. 06. 2019 20:31

#	Program:	/corina/corina34_cracker 3.40 0067  02.08.2006

@<TRIPOS>MOLECULE
ASD03091665
  51   54    0    0    0
SMALL
NO_CHARGES


@<TRIPOS>ATOM
   1 Cl1            0.0000     0.0000     0.0000 Cl      
   2 H2             0.0000     1.3700     0.0000 H       
   3 C3            14.6075    10.3852     6.7876 C.ar    
   4 C4            14.6215     9.0038     7.0167 C.ar    
   5 C5            15.8357     8.3413     7.2264 C.ar    
   6 C6            17.0121     9.0291     7.2107 C.ar    
   7 C7            17.0189    10.4060     6.9842 C.ar    
   8 C8            15.8398    11.0823     6.7746 C.ar    
   9 S9            12.9738     8.3851     6.9824 S.3     
  10 C10           12.3263     9.9848     6.6650 C.2     
  11 C11           13.3097    10.8885     6.6031 C.2     
  12 C12           10.8983    10.2902     6.4959 C.2     
  13 O13           10.5424    11.4328     6.2776 O.2     
  14 N14            9.9835     9.3044     6.5829 N.am    
  15 N15            6.8937     9.1566     8.1503 N.3     
  16 C16            7.9726    10.0703     7.7512 C.3     
  17 C17            8.5604     9.6088     6.4144 C.3     
  18 C18            7.8161     8.3488     5.9551 C.3     
  19 C19            6.3258     8.6843     5.8159 C.3     
  20 C20            5.7998     9.1707     7.1692 C.3     
  21 C21            7.4034     7.7930     8.3500 C.3     
  22 C22            7.9756     7.2669     7.0307 C.3     
  23 N23           18.2333    11.1032     6.9702 N.am    
  24 C24           19.3385    10.5215     6.4636 C.2     
  25 O25           19.3018     9.3617     6.0964 O.2     
  26 C26           20.5851    11.2858     6.3550 C.2     
  27 O27           20.7613    12.5716     6.7237 O.3     
  28 C28           22.0273    12.9345     6.4795 C.2     
  29 C29           22.6865    11.8817     5.9474 C.2     
  30 C30           21.7726    10.8193     5.8683 C.2     
  31 H31           15.8408     7.2758     7.4026 H       
  32 H32           17.9429     8.5064     7.3747 H       
  33 H33           15.8538    12.1480     6.6000 H       
  34 H34           13.1191    11.9350     6.4159 H       
  35 H35           10.2672     8.3933     6.7570 H       
  36 H36            7.5739    11.0791     7.6442 H       
  37 H37            8.7528    10.0661     8.5123 H       
  38 H38            8.4389    10.3963     5.6707 H       
  39 H39            8.2139     8.0057     5.0000 H       
  40 H40            6.1962     9.4688     5.0703 H       
  41 H41            5.7778     7.7931     5.5100 H       
  42 H42            5.0000     8.5116     7.5068 H       
  43 H43            5.4162    10.1858     7.0668 H       
  44 H44            8.1873     7.8050     9.1073 H       
  45 H45            6.5904     7.1452     8.6779 H       
  46 H46            7.4342     6.3700     6.7297 H       
  47 H47            9.0323     7.0322     7.1587 H       
  48 H48           18.2790    12.0048     7.3250 H       
  49 H49           22.4513    13.9083     6.6752 H       
  50 H50           23.7227    11.8606     5.6437 H       
  51 H51           21.9691     9.8268     5.4905 H       
@<TRIPOS>BOND
   1    1    2 1
   2    3    4 ar
   3    3    8 ar
   4    3   11 1
   5    4    5 ar
   6    4    9 1
   7    5    6 ar
   8    5   31 1
   9    6    7 ar
  10    6   32 1
  11    7    8 ar
  12    7   23 1
  13    8   33 1
  14    9   10 1
  15   10   11 2
  16   10   12 1
  17   11   34 1
  18   12   13 2
  19   12   14 am
  20   14   17 1
  21   14   35 1
  22   15   16 1
  23   15   20 1
  24   15   21 1
  25   16   17 1
  26   16   36 1
  27   16   37 1
  28   17   18 1
  29   17   38 1
  30   18   19 1
  31   18   22 1
  32   18   39 1
  33   19   20 1
  34   19   40 1
  35   19   41 1
  36   20   42 1
  37   20   43 1
  38   21   22 1
  39   21   44 1
  40   21   45 1
  41   22   46 1
  42   22   47 1
  43   23   24 am
  44   23   48 1
  45   24   25 2
  46   24   26 1
  47   26   27 1
  48   26   30 2
  49   27   28 1
  50   28   29 2
  51   28   49 1
  52   29   30 1
  53   29   50 1
  54   30   51 1

#	End of record

