#	Name: ASD01901393
#	Creating user name:	WinNT
#	Creation time:	15. 06. 2019 19:53

#	Modifying user name:	WinNT
#	Modification time:	15. 06. 2019 19:53

#	Program:	/corina/corina34_cracker 3.40 0067  02.08.2006

@<TRIPOS>MOLECULE
ASD01901393
  37   40    0    0    0
SMALL
NO_CHARGES


@<TRIPOS>ATOM
   1 C1            -0.0168     1.3892     0.0097 C.ar    
   2 N2             1.1074     2.0755     0.0026 N.ar    
   3 C3             2.2854     1.4822    -0.0118 C.ar    
   4 C4             2.3885     0.1022    -0.0206 C.ar    
   5 C5             1.2335    -0.6633    -0.0136 C.ar    
   6 C6             0.0021    -0.0041     0.0020 C.ar    
   7 C7            -1.2660    -0.7754     0.0104 C.2     
   8 N8            -2.7230    -2.2673     1.1175 N.2     
   9 C9            -1.6022    -1.5881     1.1148 C.2     
  10 C10           -2.1273    -0.7044    -1.0485 C.2     
  11 N11           -3.2835    -1.4257    -1.0086 N.pl3   
  12 C12           -3.5715    -2.2082     0.0800 C.2     
  13 C13           -4.3222    -1.5611    -1.8900 C.2     
  14 C14           -5.2094    -2.4104    -1.3300 C.2     
  15 N15           -4.7404    -2.7933    -0.1387 N.2     
  16 C16           -6.5115    -2.8534    -1.9459 C.3     
  17 O17           -6.6689    -2.2342    -3.2241 O.3     
  18 C18           -7.7998    -2.5300    -3.9181 C.ar    
  19 C19           -8.7405    -3.3937    -3.3769 C.ar    
  20 C20           -8.0167    -1.9638    -5.1657 C.ar    
  21 C21           -9.1666    -2.2649    -5.8697 C.ar    
  22 C22          -10.1026    -3.1310    -5.3303 C.ar    
  23 C23           -9.8896    -3.6930    -4.0830 C.ar    
  24 F24          -11.2271    -3.4239    -6.0194 F       
  25 Cl25           3.9475    -0.6613    -0.0406 Cl      
  26 H26           -0.9621     1.9112     0.0260 H       
  27 H27            3.1831     2.0826    -0.0171 H       
  28 H28            1.2841    -1.7421    -0.0206 H       
  29 H29           -0.9331    -1.6507     1.9603 H       
  30 H30           -1.8958    -0.0862    -1.9033 H       
  31 H31           -4.4145    -1.0789    -2.8520 H       
  32 H32           -6.5070    -3.9369    -2.0651 H       
  33 H33           -7.3378    -2.5627    -1.2971 H       
  34 H34           -8.5747    -3.8323    -2.4040 H       
  35 H35           -7.2872    -1.2877    -5.5864 H       
  36 H36           -9.3358    -1.8243    -6.8411 H       
  37 H37          -10.6222    -4.3655    -3.6618 H       
@<TRIPOS>BOND
   1    1    6 ar
   2    1    2 ar
   3    1   26 1
   4    2    3 ar
   5    3    4 ar
   6    3   27 1
   7    4    5 ar
   8    4   25 1
   9    5    6 ar
  10    5   28 1
  11    6    7 1
  12    7   10 2
  13    7    9 1
  14    8    9 2
  15    8   12 1
  16    9   29 1
  17   10   11 1
  18   10   30 1
  19   11   13 1
  20   11   12 1
  21   12   15 2
  22   13   14 2
  23   13   31 1
  24   14   15 1
  25   14   16 1
  26   16   17 1
  27   16   32 1
  28   16   33 1
  29   17   18 1
  30   18   20 ar
  31   18   19 ar
  32   19   23 ar
  33   19   34 1
  34   20   21 ar
  35   20   35 1
  36   21   22 ar
  37   21   36 1
  38   22   23 ar
  39   22   24 1
  40   23   37 1

#	End of record

