#	Name: ASD08170790
#	Creating user name:	WinNT
#	Creation time:	15. 06. 2019 21:17

#	Modifying user name:	WinNT
#	Modification time:	15. 06. 2019 21:17

#	Program:	/corina/corina34_cracker 3.40 0067  02.08.2006

@<TRIPOS>MOLECULE
ASD08170790
 117  122    0    0    0
SMALL
NO_CHARGES


@<TRIPOS>ATOM
   1 C1             4.1601     3.7013    -0.3593 C.2     
   2 N2             3.9228     2.3834    -0.5124 N.am    
   3 C3             4.9628     1.4696    -0.3800 C.2     
   4 S4             4.8255    -0.2301    -0.5441 S.3     
   5 C5             6.5518    -0.3813    -0.2150 C.2     
   6 C6             7.3377    -1.6661    -0.1636 C.3     
   7 C7             8.9012    -5.5593     3.2892 C.3     
   8 C8             8.7941    -5.9645     4.7367 C.2     
   9 S9             9.9040    -5.5085     6.0297 S.3     
  10 C10            8.9539    -6.4073     7.1360 C.2     
  11 N11            6.2003     1.7638    -0.1170 N.2     
  12 N12            7.0228     0.8104    -0.0259 N.2     
  13 N13            7.8675    -6.7056     5.2560 N.2     
  14 N14            7.9565    -6.9366     6.4940 N.2     
  15 O15            5.2807     4.0902    -0.1061 O.2     
  16 C16            3.0345     4.6920    -0.5089 C.3     
  17 N17            9.2085    -6.5475     8.4960 N.am    
  18 C18            8.3819    -7.2848     9.2639 C.2     
  19 C19            8.6578    -7.4367    10.7376 C.3     
  20 O20            7.4160    -7.8260     8.7689 O.2     
  21 C21            7.3248    -2.2151     1.2644 C.3     
  22 C22            8.1418    -4.2495     3.0687 C.3     
  23 N23            3.5476     6.0520    -0.2965 N.3     
  24 S24            8.2707    -3.7617     1.3263 S.3     
  25 C25            8.6495    -6.0795    11.3927 C.ar    
  26 N26            7.6202    -8.2803    11.3457 N.3     
  27 C27            7.6524    -9.6388    10.7877 C.3     
  28 C28            6.6838   -10.5319    11.5702 C.3     
  29 N29            5.3591    -9.8927    11.5749 N.am    
  30 C30            5.2670    -8.4853    11.9920 C.3     
  31 C31            6.2915    -7.6728    11.1929 C.3     
  32 C32            9.6175    -5.7563    12.3252 C.ar    
  33 C33            9.6099    -4.5114    12.9262 C.ar    
  34 C34            8.6346    -3.5897    12.5943 C.ar    
  35 C35            7.6672    -3.9126    11.6612 C.ar    
  36 C36            7.6774    -5.1559    11.0570 C.ar    
  37 C37            4.2588   -10.5787    11.2072 C.2     
  38 O38            3.0549    -9.9760    11.2181 O.3     
  39 O39            4.3533   -11.7410    10.8659 O.2     
  40 C40            1.9137   -10.7756    10.8098 C.3     
  41 C41            1.7777   -11.9826    11.7402 C.3     
  42 C42            0.6429    -9.9270    10.8862 C.3     
  43 C43            2.1181   -11.2597     9.3729 C.3     
  44 C44            2.4525     4.5855    -1.8949 C.ar    
  45 C45            1.2844     3.8757    -2.1014 C.ar    
  46 C46            3.0836     5.2024    -2.9589 C.ar    
  47 C47            2.5498     5.1047    -4.2302 C.ar    
  48 C48            1.3850     4.3898    -4.4377 C.ar    
  49 C49            0.7505     3.7780    -3.3727 C.ar    
  50 C50            4.0158     6.2282     1.0847 C.3     
  51 C51            4.7055     7.5902     1.2169 C.3     
  52 N52            3.7831     8.6297     0.7355 N.am    
  53 C53            3.1652     8.4532    -0.5875 C.3     
  54 C54            2.5360     7.0573    -0.6486 C.3     
  55 C55            3.5116     9.7154     1.4865 C.2     
  56 O56            2.6645    10.6562     1.0284 O.3     
  57 O57            4.0315     9.8451     2.5771 O.2     
  58 C58            2.4188    11.7983     1.8907 C.3     
  59 C59            3.7368    12.5275     2.1591 C.3     
  60 C60            1.4381    12.7525     1.2062 C.3     
  61 C61            1.8226    11.3182     3.2154 C.3     
  62 H62            3.0267     2.0723    -0.7150 H       
  63 H63            6.8869    -2.3950    -0.8372 H       
  64 H64            8.3662    -1.4755    -0.4703 H       
  65 H65            9.9501    -5.4196     3.0277 H       
  66 H66            8.4708    -6.3390     2.6608 H       
  67 H67            2.2605     4.4765     0.2277 H       
  68 H68            9.9810    -6.1147     8.8920 H       
  69 H69            9.6333    -7.9022    10.8785 H       
  70 H70            7.7756    -1.4863     1.9380 H       
  71 H71            6.2963    -2.4057     1.5711 H       
  72 H72            7.0929    -4.3892     3.3302 H       
  73 H73            8.5722    -3.4698     3.6971 H       
  74 H74            7.3537    -9.6088     9.7399 H       
  75 H75            8.6625   -10.0407    10.8671 H       
  76 H76            6.6175   -11.5084    11.0906 H       
  77 H77            7.0383   -10.6472    12.5945 H       
  78 H78            4.2640    -8.1088    11.7912 H       
  79 H79            5.4854    -8.4039    13.0568 H       
  80 H80            6.3145    -6.6489    11.5660 H       
  81 H81            6.0117    -7.6702    10.1394 H       
  82 H82           10.3794    -6.4764    12.5845 H       
  83 H83           10.3657    -4.2591    13.6552 H       
  84 H84            8.6282    -2.6173    13.0644 H       
  85 H85            6.9050    -3.1926    11.4022 H       
  86 H86            6.9216    -5.4082    10.3280 H       
  87 H87            1.6321   -11.6377    12.7639 H       
  88 H88            0.9210   -12.5828    11.4337 H       
  89 H89            2.6830   -12.5871    11.6858 H       
  90 H90            0.7398    -9.0671    10.2234 H       
  91 H91           -0.2138   -10.5272    10.5797 H       
  92 H92            0.4973    -9.5821    11.9099 H       
  93 H93            3.0235   -11.8643     9.3185 H       
  94 H94            1.2614   -11.8599     9.0664 H       
  95 H95            2.2150   -10.3998     8.7101 H       
  96 H96            0.7890     3.3972    -1.2695 H       
  97 H97            3.9936     5.7609    -2.7968 H       
  98 H98            3.0425     5.5872    -5.0613 H       
  99 H99            0.9677     4.3137    -5.4309 H       
 100 H100          -0.1595     3.2194    -3.5348 H       
 101 H101           3.1656     6.1834     1.7654 H       
 102 H102           4.7229     5.4367     1.3329 H       
 103 H103           4.9527     7.7755     2.2622 H       
 104 H104           5.6145     7.6001     0.6155 H       
 105 H105           2.3939     9.2092    -0.7352 H       
 106 H106           3.9261     8.5462    -1.3624 H       
 107 H107           2.1701     6.8671    -1.6576 H       
 108 H108           1.7065     7.0010     0.0562 H       
 109 H109           4.1615    12.8695     1.2154 H       
 110 H110           3.5523    13.3848     2.8065 H       
 111 H111           4.4354    11.8476     2.6468 H       
 112 H112           0.4992    12.2330     1.0150 H       
 113 H113           1.2537    13.6099     1.8535 H       
 114 H114           1.8629    13.0946     0.2624 H       
 115 H115           2.5212    10.6383     3.7031 H       
 116 H116           1.6382    12.1755     3.8628 H       
 117 H117           0.8836    10.7986     3.0242 H       
@<TRIPOS>BOND
   1    1    2 am
   2    1   15 2
   3    1   16 1
   4    2    3 1
   5    2   62 1
   6    3    4 1
   7    3   11 2
   8    4    5 1
   9    5    6 1
  10    5   12 2
  11    6   21 1
  12    6   63 1
  13    6   64 1
  14    7    8 1
  15    7   22 1
  16    7   65 1
  17    7   66 1
  18    8    9 1
  19    8   13 2
  20    9   10 1
  21   10   17 1
  22   10   14 2
  23   11   12 1
  24   13   14 1
  25   16   23 1
  26   16   44 1
  27   16   67 1
  28   17   18 am
  29   17   68 1
  30   18   19 1
  31   18   20 2
  32   19   25 1
  33   19   26 1
  34   19   69 1
  35   21   24 1
  36   21   70 1
  37   21   71 1
  38   22   24 1
  39   22   72 1
  40   22   73 1
  41   23   50 1
  42   23   54 1
  43   25   32 ar
  44   25   36 ar
  45   26   27 1
  46   26   31 1
  47   27   28 1
  48   27   74 1
  49   27   75 1
  50   28   29 1
  51   28   76 1
  52   28   77 1
  53   29   30 1
  54   29   37 am
  55   30   31 1
  56   30   78 1
  57   30   79 1
  58   31   80 1
  59   31   81 1
  60   32   33 ar
  61   32   82 1
  62   33   34 ar
  63   33   83 1
  64   34   35 ar
  65   34   84 1
  66   35   36 ar
  67   35   85 1
  68   36   86 1
  69   37   38 1
  70   37   39 2
  71   38   40 1
  72   40   41 1
  73   40   42 1
  74   40   43 1
  75   41   87 1
  76   41   88 1
  77   41   89 1
  78   42   90 1
  79   42   91 1
  80   42   92 1
  81   43   93 1
  82   43   94 1
  83   43   95 1
  84   44   45 ar
  85   44   46 ar
  86   45   49 ar
  87   45   96 1
  88   46   47 ar
  89   46   97 1
  90   47   48 ar
  91   47   98 1
  92   48   49 ar
  93   48   99 1
  94   49  100 1
  95   50   51 1
  96   50  101 1
  97   50  102 1
  98   51   52 1
  99   51  103 1
 100   51  104 1
 101   52   53 1
 102   52   55 am
 103   53   54 1
 104   53  105 1
 105   53  106 1
 106   54  107 1
 107   54  108 1
 108   55   56 1
 109   55   57 2
 110   56   58 1
 111   58   59 1
 112   58   60 1
 113   58   61 1
 114   59  109 1
 115   59  110 1
 116   59  111 1
 117   60  112 1
 118   60  113 1
 119   60  114 1
 120   61  115 1
 121   61  116 1
 122   61  117 1

#	End of record

