#	Name: ASD01209350
#	Creating user name:	WinNT
#	Creation time:	15. 06. 2019 19:11

#	Modifying user name:	WinNT
#	Modification time:	15. 06. 2019 19:11

#	Program:	/corina/corina34_cracker 3.40 0067  02.08.2006

@<TRIPOS>MOLECULE
ASD01209350
  39   41    0    0    0
SMALL
NO_CHARGES


@<TRIPOS>ATOM
   1 N1            -0.0162     1.3413     0.0094 N.am    
   2 C2             0.0021    -0.0041     0.0020 C.2     
   3 C3             1.3782    -0.4906    -0.0137 C.2     
   4 C4             2.2275     0.5564    -0.0162 C.2     
   5 C5             1.3769     1.8057    -0.0014 C.3     
   6 O6            -0.9867    -0.7134     0.0083 O.2     
   7 C7             3.6982     0.4948    -0.0306 C.ar    
   8 C8             4.3685    -0.0387    -1.1358 C.ar    
   9 C9             5.7463    -0.0925    -1.1420 C.ar    
  10 C10            6.4657     0.3798    -0.0580 C.ar    
  11 C11            5.8095     0.9088     1.0397 C.ar    
  12 C12            4.4323     0.9748     1.0585 C.ar    
  13 C13           -1.2104     2.1897     0.0199 C.3     
  14 C14           -1.6125     2.4734     1.4443 C.ar    
  15 C15           -1.1028     3.5801     2.0980 C.ar    
  16 C16           -1.4698     3.8423     3.4037 C.ar    
  17 C17           -2.3507     2.9942     4.0591 C.ar    
  18 C18           -2.8608     1.8846     3.4010 C.ar    
  19 C19           -2.4950     1.6298     2.0934 C.ar    
  20 O20           -2.7129     3.2499     5.3437 O.3     
  21 C21           -3.6235     2.3341     5.9555 C.3     
  22 O22            1.6272     2.5865    -1.1718 O.3     
  23 H23            1.6711    -1.5301    -0.0216 H       
  24 H24            1.5849     2.3916     0.8939 H       
  25 H25            3.8084    -0.4080    -1.9822 H       
  26 H26            6.2654    -0.5046    -1.9947 H       
  27 H27            7.5447     0.3350    -0.0687 H       
  28 H28            6.3778     1.2748     1.8821 H       
  29 H29            3.9219     1.3921     1.9139 H       
  30 H30           -0.9938     3.1283    -0.4903 H       
  31 H31           -2.0247     1.6773    -0.4923 H       
  32 H32           -0.4168     4.2398     1.5875 H       
  33 H33           -1.0711     4.7066     3.9140 H       
  34 H34           -3.5466     1.2228     3.9090 H       
  35 H35           -2.8955     0.7687     1.5791 H       
  36 H36           -3.8288     2.6537     6.9771 H       
  37 H37           -4.5537     2.3126     5.3876 H       
  38 H38           -3.1826     1.3373     5.9683 H       
  39 H39            2.5320     2.9216    -1.2349 H       
@<TRIPOS>BOND
   1    1    2 am
   2    1    5 1
   3    1   13 1
   4    2    3 1
   5    2    6 2
   6    3    4 2
   7    3   23 1
   8    4    5 1
   9    4    7 1
  10    5   22 1
  11    5   24 1
  12    7    8 ar
  13    7   12 ar
  14    8    9 ar
  15    8   25 1
  16    9   10 ar
  17    9   26 1
  18   10   11 ar
  19   10   27 1
  20   11   12 ar
  21   11   28 1
  22   12   29 1
  23   13   14 1
  24   13   30 1
  25   13   31 1
  26   14   15 ar
  27   14   19 ar
  28   15   16 ar
  29   15   32 1
  30   16   17 ar
  31   16   33 1
  32   17   18 ar
  33   17   20 1
  34   18   19 ar
  35   18   34 1
  36   19   35 1
  37   20   21 1
  38   21   36 1
  39   21   37 1
  40   21   38 1
  41   22   39 1

#	End of record

