#	Name: ASD09740193
#	Creating user name:	WinNT
#	Creation time:	15. 06. 2019 21:22

#	Modifying user name:	WinNT
#	Modification time:	15. 06. 2019 21:22

#	Program:	/corina/corina34_cracker 3.40 0067  02.08.2006

@<TRIPOS>MOLECULE
ASD09740193
  44   47    0    0    0
SMALL
NO_CHARGES


@<TRIPOS>ATOM
   1 O1             0.0312     1.4634    -1.5753 O.3     
   2 N2             0.0581     0.3095    -1.9473 N.2     
   3 C3             1.2800     1.8986    -1.3451 C.2     
   4 N4             2.0915     0.8921    -1.6133 N.2     
   5 C5             1.2914    -0.1232    -1.9995 C.2     
   6 C6             1.7301    -1.4818    -2.4085 C.ar    
   7 C7             1.6712     3.2451    -0.8813 C.ar    
   8 C8             0.7997    -2.4518    -2.7892 C.ar    
   9 C9             3.0847    -1.8226    -2.4284 C.ar    
  10 C10            3.4492    -3.0965    -2.8155 C.ar    
  11 N11            2.5385    -3.9850    -3.1629 N.ar    
  12 C12            1.2503    -3.7020    -3.1627 C.ar    
  13 C13            3.0187     3.5535    -0.6856 C.ar    
  14 C14            3.3825     4.8111    -0.2525 C.ar    
  15 C15            2.4119     5.7722    -0.0097 C.ar    
  16 C16            1.0647     5.4708    -0.2026 C.ar    
  17 C17            0.6941     4.2147    -0.6428 C.ar    
  18 O18            0.1155     6.4148     0.0371 O.3     
  19 C19           -1.2491     6.0041    -0.0683 C.3     
  20 C20           -2.1440     6.9260     0.7785 C.3     
  21 C21           -3.1384     7.5911    -0.1955 C.3     
  22 C22           -3.1990     6.6185    -1.3994 C.3     
  23 C23           -1.7310     6.1412    -1.5274 C.3     
  24 O24            2.7752     7.0097     0.4174 O.3     
  25 C25            4.1726     7.2505     0.5946 C.3     
  26 H26           -0.2566    -2.2270    -2.7910 H       
  27 H27            3.8357    -1.0999    -2.1455 H       
  28 H28            4.4940    -3.3692    -2.8344 H       
  29 H29            0.5383    -4.4599    -3.4542 H       
  30 H30            3.7763     2.8069    -0.8732 H       
  31 H31            4.4253     5.0483    -0.1016 H       
  32 H32           -0.3493     3.9799    -0.7930 H       
  33 H33           -1.3549     4.9718     0.2652 H       
  34 H34           -2.6847     6.3410     1.5225 H       
  35 H35           -1.5373     7.6867     1.2699 H       
  36 H36           -4.1204     7.6862     0.2679 H       
  37 H37           -2.7684     8.5665    -0.5113 H       
  38 H38           -3.8607     5.7793    -1.1851 H       
  39 H39           -3.5155     7.1406    -2.3023 H       
  40 H40           -1.1338     6.8824    -2.0584 H       
  41 H41           -1.6860     5.1782    -2.0361 H       
  42 H42            4.5697     6.5567     1.3356 H       
  43 H43            4.6896     7.1045    -0.3538 H       
  44 H44            4.3243     8.2741     0.9373 H       
@<TRIPOS>BOND
   1    1    2 1
   2    1    3 1
   3    2    5 2
   4    3    4 2
   5    3    7 1
   6    4    5 1
   7    5    6 1
   8    6    8 ar
   9    6    9 ar
  10    7   13 ar
  11    7   17 ar
  12    8   12 ar
  13    8   26 1
  14    9   10 ar
  15    9   27 1
  16   10   11 ar
  17   10   28 1
  18   11   12 ar
  19   12   29 1
  20   13   14 ar
  21   13   30 1
  22   14   15 ar
  23   14   31 1
  24   15   16 ar
  25   15   24 1
  26   16   17 ar
  27   16   18 1
  28   17   32 1
  29   18   19 1
  30   19   20 1
  31   19   23 1
  32   19   33 1
  33   20   21 1
  34   20   34 1
  35   20   35 1
  36   21   22 1
  37   21   36 1
  38   21   37 1
  39   22   23 1
  40   22   38 1
  41   22   39 1
  42   23   40 1
  43   23   41 1
  44   24   25 1
  45   25   42 1
  46   25   43 1
  47   25   44 1

#	End of record

