#	Name: ASD01911169
#	Creating user name:	WinNT
#	Creation time:	15. 06. 2019 19:57

#	Modifying user name:	WinNT
#	Modification time:	15. 06. 2019 19:57

#	Program:	/corina/corina34_cracker 3.40 0067  02.08.2006

@<TRIPOS>MOLECULE
ASD01911169
  42   45    0    0    0
SMALL
NO_CHARGES


@<TRIPOS>ATOM
   1 C1             0.5891     1.0260     0.2979 C.ar    
   2 C2             0.8170    -0.3378     0.3940 C.ar    
   3 C3             2.1074    -0.8315     0.4348 C.ar    
   4 C4             3.1915     0.0304     0.3798 C.ar    
   5 C5             2.9790     1.3963     0.2832 C.ar    
   6 C6             1.6631     1.8997     0.2420 C.ar    
   7 C7             3.8661     2.5761     0.2054 C.2     
   8 N8             3.1033     3.6813     0.1246 N.am    
   9 C9             1.7950     3.3684     0.1402 C.2     
  10 C10            3.6283     5.0458     0.0321 C.3     
  11 C11            3.9555     5.3619    -1.4046 C.ar    
  12 C12            2.9541     5.7858    -2.2683 C.ar    
  13 C13            3.2591     6.0762    -3.5920 C.ar    
  14 C14            4.5565     5.9429    -4.0455 C.ar    
  15 C15            5.5526     5.5203    -3.1825 C.ar    
  16 C16            5.2526     5.2358    -1.8620 C.ar    
  17 N17            1.6406     5.9195    -1.8064 N.am    
  18 C18            0.6138     5.8984    -2.6792 C.2     
  19 C19           -0.7674     6.1568    -2.2055 C.2     
  20 O20            0.8761     4.1602     0.0801 O.2     
  21 O21            5.0803     2.5518     0.2131 O.2     
  22 O22            0.8200     5.6676    -3.8542 O.2     
  23 Cl23           7.1827     5.3538    -3.7559 Cl      
  24 C24           -1.9527     6.1709    -2.9925 C.2     
  25 C25           -2.9318     6.4507    -2.1015 C.2     
  26 O26           -2.3385     6.5830    -0.9072 O.3     
  27 N27           -1.1435     6.4127    -0.9771 N.2     
  28 C28           -4.4036     6.5876    -2.3952 C.3     
  29 H29           -0.4213     1.4058     0.2622 H       
  30 H30           -0.0196    -1.0195     0.4376 H       
  31 H31            2.2721    -1.8962     0.5105 H       
  32 H32            4.1976    -0.3608     0.4124 H       
  33 H33            2.8796     5.7487     0.3974 H       
  34 H34            4.5310     5.1296     0.6372 H       
  35 H35            2.4821     6.4057    -4.2659 H       
  36 H36            4.7941     6.1683    -5.0747 H       
  37 H37            6.0319     4.9065    -1.1906 H       
  38 H38            1.4687     6.0274    -0.8578 H       
  39 H39           -2.0486     5.9988    -4.0544 H       
  40 H40           -4.8867     5.6160    -2.2915 H       
  41 H41           -4.8501     7.2922    -1.6936 H       
  42 H42           -4.5384     6.9536    -3.4131 H       
@<TRIPOS>BOND
   1    1    2 ar
   2    1    6 ar
   3    1   29 1
   4    2    3 ar
   5    2   30 1
   6    3    4 ar
   7    3   31 1
   8    4    5 ar
   9    4   32 1
  10    5    6 ar
  11    5    7 1
  12    6    9 1
  13    7    8 am
  14    7   21 2
  15    8    9 am
  16    8   10 1
  17    9   20 2
  18   10   11 1
  19   10   33 1
  20   10   34 1
  21   11   12 ar
  22   11   16 ar
  23   12   13 ar
  24   12   17 1
  25   13   14 ar
  26   13   35 1
  27   14   15 ar
  28   14   36 1
  29   15   16 ar
  30   15   23 1
  31   16   37 1
  32   17   18 am
  33   17   38 1
  34   18   19 1
  35   18   22 2
  36   19   24 1
  37   19   27 2
  38   24   25 2
  39   24   39 1
  40   25   26 1
  41   25   28 1
  42   26   27 1
  43   28   40 1
  44   28   41 1
  45   28   42 1

#	End of record

