#	Name: ASD03240607
#	Creating user name:	WinNT
#	Creation time:	15. 06. 2019 20:35

#	Modifying user name:	WinNT
#	Modification time:	15. 06. 2019 20:35

#	Program:	/corina/corina34_cracker 3.40 0067  02.08.2006

@<TRIPOS>MOLECULE
ASD03240607
  67   73    0    0    0
SMALL
NO_CHARGES


@<TRIPOS>ATOM
   1 C1            -0.0166     1.3755     0.0096 C.ar    
   2 C2             0.0021    -0.0041     0.0020 C.ar    
   3 N3             1.1421    -0.6683    -0.0058 N.ar    
   4 C4             2.3145    -0.0481    -0.0058 C.ar    
   5 C5             2.3702     1.3442    -0.0124 C.ar    
   6 C6             1.1860     2.0698     0.0019 C.ar    
   7 N7             3.4819    -0.8059     0.0219 N.pl3   
   8 C8             4.3592    -0.7194     1.0994 C.ar    
   9 C9             4.9951     0.4890     1.4034 C.ar    
  10 C10            4.7633     1.6836     0.5619 C.2     
  11 N11            3.5938     2.0277    -0.0512 N.pl3   
  12 C12            4.6054    -1.8392     1.8826 C.ar    
  13 C13            5.4652    -1.7538     2.9609 C.ar    
  14 C14            6.0857    -0.5556     3.2700 C.ar    
  15 C15            5.8560     0.5653     2.4979 C.ar    
  16 N16            5.6746     2.5938     0.2853 N.2     
  17 C17            5.1434     3.5404    -0.5052 C.2     
  18 C18            3.8209     3.2030    -0.7354 C.2     
  19 C19            2.8465     3.9525    -1.5517 C.ar    
  20 C20            2.7460     5.3403    -1.4261 C.ar    
  21 C21            2.0242     3.2784    -2.4579 C.ar    
  22 C22            1.1157     3.9855    -3.2175 C.ar    
  23 C23            1.0180     5.3594    -3.0840 C.ar    
  24 C24            1.8330     6.0343    -2.1922 C.ar    
  25 C25            5.8455     4.7298    -1.0346 C.ar    
  26 C26            0.0232     6.1249    -3.9179 C.3     
  27 C27            6.8145     5.3677    -0.2607 C.ar    
  28 C28            7.4698     6.4799    -0.7580 C.ar    
  29 C29            7.1537     6.9586    -2.0397 C.ar    
  30 C30            6.1790     6.3087    -2.8058 C.ar    
  31 C31            5.5402     5.2092    -2.3126 C.ar    
  32 N32           -1.0353     5.2696    -4.4712 N.3     
  33 C33           -0.5068     7.3955    -3.2326 C.3     
  34 C34           -0.4132     8.0806    -4.6061 C.3     
  35 C35            0.6749     7.0521    -4.9573 C.3     
  36 C36            7.8455     8.1413    -2.5763 C.2     
  37 O37            8.6914     8.7049    -1.9099 O.2     
  38 O38            7.5410     8.5996    -3.8068 O.3     
  39 C39            8.2631     9.7705    -4.2714 C.3     
  40 O40            8.4133     7.1056    -0.0105 O.3     
  41 H41           -0.9556     1.9091     0.0170 H       
  42 H42           -0.9306    -0.5486     0.0028 H       
  43 H43            1.2002     3.1497     0.0071 H       
  44 H44            3.6863    -1.3999    -0.7172 H       
  45 H45            4.1242    -2.7775     1.6491 H       
  46 H46            5.6542    -2.6277     3.5668 H       
  47 H47            6.7518    -0.4976     4.1181 H       
  48 H48            6.3409     1.4991     2.7414 H       
  49 H49            3.3814     5.8684    -0.7306 H       
  50 H50            2.0999     2.2062    -2.5636 H       
  51 H51            0.4793     3.4657    -3.9184 H       
  52 H52            1.7510     7.1066    -2.0930 H       
  53 H53            7.0526     4.9945     0.7244 H       
  54 H54            5.9353     6.6762    -3.7917 H       
  55 H55            4.7890     4.7117    -2.9081 H       
  56 H56           -0.6436     4.4621    -4.9322 H       
  57 H57           -1.6898     4.9947    -3.7542 H       
  58 H58           -1.5271     7.2983    -2.8617 H       
  59 H59            0.1766     7.8089    -2.4909 H       
  60 H60           -1.3177     7.9814    -5.2061 H       
  61 H61           -0.0459     9.1058    -4.5586 H       
  62 H62            1.6813     7.3717    -4.6872 H       
  63 H63            0.6084     6.6778    -5.9789 H       
  64 H64            9.3309     9.5529    -4.2959 H       
  65 H65            7.9229    10.0335    -5.2730 H       
  66 H66            8.0777    10.6042    -3.5942 H       
  67 H67            9.3087     6.7651    -0.1418 H       
@<TRIPOS>BOND
   1    1    2 ar
   2    1    6 ar
   3    1   41 1
   4    2    3 ar
   5    2   42 1
   6    3    4 ar
   7    4    5 ar
   8    4    7 1
   9    5    6 ar
  10    5   11 1
  11    6   43 1
  12    7    8 1
  13    7   44 1
  14    8    9 ar
  15    8   12 ar
  16    9   10 1
  17    9   15 ar
  18   10   11 1
  19   10   16 2
  20   11   18 1
  21   12   13 ar
  22   12   45 1
  23   13   14 ar
  24   13   46 1
  25   14   15 ar
  26   14   47 1
  27   15   48 1
  28   16   17 1
  29   17   18 2
  30   17   25 1
  31   18   19 1
  32   19   20 ar
  33   19   21 ar
  34   20   24 ar
  35   20   49 1
  36   21   22 ar
  37   21   50 1
  38   22   23 ar
  39   22   51 1
  40   23   24 ar
  41   23   26 1
  42   24   52 1
  43   25   27 ar
  44   25   31 ar
  45   26   33 1
  46   26   32 1
  47   26   35 1
  48   27   28 ar
  49   27   53 1
  50   28   29 ar
  51   28   40 1
  52   29   30 ar
  53   29   36 1
  54   30   31 ar
  55   30   54 1
  56   31   55 1
  57   32   56 1
  58   32   57 1
  59   33   34 1
  60   33   58 1
  61   33   59 1
  62   34   35 1
  63   34   60 1
  64   34   61 1
  65   35   62 1
  66   35   63 1
  67   36   37 2
  68   36   38 1
  69   38   39 1
  70   39   64 1
  71   39   65 1
  72   39   66 1
  73   40   67 1

#	End of record

