#	Name: ASD02198706
#	Creating user name:	WinNT
#	Creation time:	15. 06. 2019 20:20

#	Modifying user name:	WinNT
#	Modification time:	15. 06. 2019 20:20

#	Program:	/corina/corina34_cracker 3.40 0067  02.08.2006

@<TRIPOS>MOLECULE
ASD02198706
  57   61    0    0    0
SMALL
NO_CHARGES


@<TRIPOS>ATOM
   1 C1            -0.0433     1.5018    -0.1150 C.2     
   2 C2            -0.0730     0.1619     0.0975 C.2     
   3 N3             1.0712    -0.5396     0.2599 N.pl3   
   4 N4             2.2357    -0.0048     0.2258 N.2     
   5 C5             2.4071     1.2849     0.0276 C.2     
   6 C6             1.2214     2.1358    -0.1604 C.2     
   7 C7             0.9797    -1.9188     0.4764 C.ar    
   8 C8             1.5816    -2.4908     1.5966 C.ar    
   9 C9             1.4892    -3.8562     1.8080 C.ar    
  10 C10            0.7981    -4.6522     0.9048 C.ar    
  11 C11            0.1990    -4.0800    -0.2109 C.ar    
  12 C12            0.2845    -2.7187    -0.4211 C.ar    
  13 C13            3.7639     1.8674    -0.0051 C.2     
  14 N14            4.3057     2.6076    -1.0181 N.pl3   
  15 N15            5.6076     2.9593    -0.6404 N.2     
  16 C16            5.8515     2.4597     0.5449 C.2     
  17 C17            4.7198     1.7718     0.9825 C.2     
  18 C18            3.6726     2.9522    -2.2191 C.ar    
  19 C19            3.8061     4.2354    -2.7328 C.ar    
  20 C20            3.1809     4.5720    -3.9174 C.ar    
  21 C21            2.4227     3.6327    -4.5919 C.ar    
  22 C22            2.2874     2.3541    -4.0828 C.ar    
  23 C23            2.9147     2.0096    -2.9015 C.ar    
  24 O24            1.3242     3.3390    -0.3483 O.2     
  25 N25            0.7049    -6.0323     1.1179 N.am    
  26 C26            1.2328    -6.6982     2.1540 C.2     
  27 C27            0.0062    -6.9874     0.2444 C.3     
  28 C28            0.2171    -8.3450     0.9421 C.3     
  29 O29            1.0009    -8.0155     2.1253 O.3     
  30 O30            1.8644    -6.1553     3.0388 O.2     
  31 C31           -1.4841    -6.6506     0.1632 C.3     
  32 O32            2.2581    -1.7096     2.4792 O.3     
  33 C33            2.8492    -2.3636     3.6039 C.3     
  34 C34            0.6331    -6.9973    -1.1513 C.3     
  35 H35           -0.9547     2.0653    -0.2495 H       
  36 H36           -1.0228    -0.3505     0.1378 H       
  37 H37            1.9549    -4.3016     2.6747 H       
  38 H38           -0.3379    -4.7011    -0.9126 H       
  39 H39           -0.1819    -2.2764    -1.2890 H       
  40 H40            6.7752     2.5657     1.0945 H       
  41 H41            4.6142     1.2520     1.9233 H       
  42 H42            4.3979     4.9696    -2.2063 H       
  43 H43            3.2841     5.5699    -4.3172 H       
  44 H44            1.9348     3.8983    -5.5181 H       
  45 H45            1.6942     1.6228    -4.6117 H       
  46 H46            2.8090     1.0108    -2.5046 H       
  47 H47           -0.7403    -8.7795     1.2298 H       
  48 H48            0.7677    -9.0264     0.2936 H       
  49 H49           -1.6081    -5.6459    -0.2409 H       
  50 H50           -1.9839    -7.3682    -0.4874 H       
  51 H51           -1.9220    -6.6977     1.1603 H       
  52 H52            3.3571    -1.6272     4.2268 H       
  53 H53            2.0720    -2.8582     4.1864 H       
  54 H54            3.5696    -3.1041     3.2563 H       
  55 H55            1.6811    -7.2877    -1.0768 H       
  56 H56            0.1026    -7.7099    -1.7829 H       
  57 H57            0.5623    -6.0013    -1.5884 H       
@<TRIPOS>BOND
   1    1    2 2
   2    1    6 1
   3    1   35 1
   4    2    3 1
   5    2   36 1
   6    3    4 1
   7    3    7 1
   8    4    5 2
   9    5    6 1
  10    5   13 1
  11    6   24 2
  12    7    8 ar
  13    7   12 ar
  14    8    9 ar
  15    8   32 1
  16    9   10 ar
  17    9   37 1
  18   10   11 ar
  19   10   25 1
  20   11   12 ar
  21   11   38 1
  22   12   39 1
  23   13   14 1
  24   13   17 2
  25   14   15 1
  26   14   18 1
  27   15   16 2
  28   16   17 1
  29   16   40 1
  30   17   41 1
  31   18   19 ar
  32   18   23 ar
  33   19   20 ar
  34   19   42 1
  35   20   21 ar
  36   20   43 1
  37   21   22 ar
  38   21   44 1
  39   22   23 ar
  40   22   45 1
  41   23   46 1
  42   25   27 1
  43   25   26 am
  44   26   30 2
  45   26   29 1
  46   27   28 1
  47   27   31 1
  48   27   34 1
  49   28   29 1
  50   28   47 1
  51   28   48 1
  52   31   49 1
  53   31   50 1
  54   31   51 1
  55   32   33 1
  56   33   52 1
  57   33   53 1
  58   33   54 1
  59   34   55 1
  60   34   56 1
  61   34   57 1

#	End of record

