#	Name: ASD01918006
#	Creating user name:	WinNT
#	Creation time:	15. 06. 2019 20:10

#	Modifying user name:	WinNT
#	Modification time:	15. 06. 2019 20:10

#	Program:	/corina/corina34_cracker 3.40 0067  02.08.2006

@<TRIPOS>MOLECULE
ASD01918006
  48   51    0    0    0
SMALL
NO_CHARGES


@<TRIPOS>ATOM
   1 N1             4.8259    -0.4046    -2.1399 N.ar    
   2 C2             5.2916     0.2912    -3.1579 C.ar    
   3 C3             5.1765     1.6740    -3.1858 C.ar    
   4 C4             4.5603     2.3229    -2.1223 C.ar    
   5 C5             4.0818     1.5532    -1.0675 C.ar    
   6 C6             4.2356     0.1748    -1.1134 C.ar    
   7 O7             3.4726     2.1431    -0.0056 O.3     
   8 C8             3.4500     3.5023     0.0437 C.2     
   9 N9             2.1932     5.5149    -0.0217 N.pl3   
  10 C10            2.2669     4.1544    -0.0657 C.2     
  11 C11            4.6495     4.2063     0.2128 C.2     
  12 C12            4.6212     5.5944     0.2630 C.2     
  13 C13            3.3267     6.2693     0.1360 C.2     
  14 C14            5.8608     6.3681     0.4399 C.2     
  15 N15            5.8142     7.7142     0.4864 N.am    
  16 C16            6.9701     8.4422     0.7591 C.ar    
  17 N17            8.1310     7.8144     0.8648 N.ar    
  18 C18            6.8951     9.8219     0.9124 C.ar    
  19 C19            8.0511    10.5329     1.1831 C.ar    
  20 C20            9.2469     9.8364     1.2917 C.ar    
  21 C21            9.2488     8.4658     1.1220 C.ar    
  22 O22            6.9273     5.7925     0.5442 O.2     
  23 C23            1.1423     6.3892    -0.1073 C.2     
  24 C24            1.6522     7.6354    -0.0093 C.2     
  25 N25            2.9773     7.5429     0.1438 N.2     
  26 O26            5.6602     2.3842    -4.2388 O.3     
  27 C27           10.5446     7.7044     1.2329 C.3     
  28 C28           10.3975     6.5967     2.2780 C.3     
  29 C29            6.2799     1.6428    -5.2915 C.3     
  30 H30            5.7690    -0.2210    -3.9802 H       
  31 H31            4.4561     3.3979    -2.1150 H       
  32 H32            3.8673    -0.4305    -0.2984 H       
  33 H33            1.3598     3.5818    -0.1914 H       
  34 H34            5.5858     3.6757     0.3033 H       
  35 H35            4.9757     8.1762     0.3298 H       
  36 H36            5.9476    10.3321     0.8210 H       
  37 H37            8.0236    11.6055     1.3068 H       
  38 H38           10.1669    10.3615     1.5020 H       
  39 H39            0.1017     6.1305    -0.2356 H       
  40 H40            1.0839     8.5532    -0.0405 H       
  41 H41           10.7902     7.2626     0.2672 H       
  42 H42           11.3411     8.3848     1.5343 H       
  43 H43           10.1519     7.0385     3.2437 H       
  44 H44            9.6010     5.9163     1.9766 H       
  45 H45           11.3347     6.0460     2.3582 H       
  46 H46            7.1318     1.0908    -4.8945 H       
  47 H47            5.5597     0.9433    -5.7160 H       
  48 H48            6.6208     2.3286    -6.0671 H       
@<TRIPOS>BOND
   1    1    2 ar
   2    1    6 ar
   3    2    3 ar
   4    2   30 1
   5    3    4 ar
   6    3   26 1
   7    4    5 ar
   8    4   31 1
   9    5    6 ar
  10    5    7 1
  11    6   32 1
  12    7    8 1
  13    8   11 1
  14    8   10 2
  15    9   10 1
  16    9   23 1
  17    9   13 1
  18   10   33 1
  19   11   12 2
  20   11   34 1
  21   12   13 1
  22   12   14 1
  23   13   25 2
  24   14   15 am
  25   14   22 2
  26   15   16 1
  27   15   35 1
  28   16   18 ar
  29   16   17 ar
  30   17   21 ar
  31   18   19 ar
  32   18   36 1
  33   19   20 ar
  34   19   37 1
  35   20   21 ar
  36   20   38 1
  37   21   27 1
  38   23   24 2
  39   23   39 1
  40   24   25 1
  41   24   40 1
  42   26   29 1
  43   27   28 1
  44   27   41 1
  45   27   42 1
  46   28   43 1
  47   28   44 1
  48   28   45 1
  49   29   46 1
  50   29   47 1
  51   29   48 1

#	End of record

