#	Name: ASD03092319
#	Creating user name:	WinNT
#	Creation time:	15. 06. 2019 20:32

#	Modifying user name:	WinNT
#	Modification time:	15. 06. 2019 20:32

#	Program:	/corina/corina34_cracker 3.40 0067  02.08.2006

@<TRIPOS>MOLECULE
ASD03092319
  61   64    0    0    0
SMALL
NO_CHARGES


@<TRIPOS>ATOM
   1 O1            -0.0072     1.9945     0.1712 O.3     
   2 N2            -0.1681     0.8003     0.2322 N.2     
   3 C3             0.9571     0.1492     0.2128 C.2     
   4 C4             2.0018     1.1808     0.1206 C.2     
   5 C5             1.2780     2.3481     0.0993 C.2     
   6 C6             3.4642     1.0052     0.0654 C.2     
   7 O7             4.0220     0.8849    -1.0084 O.2     
   8 N8             4.1832     0.9779     1.2051 N.am    
   9 C9             1.8260     3.7492     0.0120 C.3     
  10 C10            1.1500    -1.3442     0.2724 C.3     
  11 C11            5.6367     0.8034     1.1502 C.3     
  12 S12            7.1435     1.4947     4.7902 S.3     
  13 C13            6.8799    -0.1575     4.4397 C.2     
  14 N14            6.3916    -0.2921     3.2433 N.2     
  15 C15            6.1964     0.8081     2.5494 C.2     
  16 C16            6.5398     1.9414     3.1965 C.2     
  17 C17            5.6922     5.5839     2.8525 C.ar    
  18 C18            5.7715     4.3166     3.3880 C.ar    
  19 C19            6.4287     3.3132     2.6634 C.ar    
  20 C20            6.9778     3.6489     1.4186 C.ar    
  21 C21            6.8510     4.9421     0.9598 C.ar    
  22 N22            6.2238     5.8573     1.6754 N.ar    
  23 C23            7.4368     5.3170    -0.3772 C.3     
  24 C24            4.9829     6.6710     3.6181 C.3     
  25 N25            7.1485    -1.2017     5.3058 N.3     
  26 C26            7.6938    -0.7046     6.5773 C.3     
  27 C27            8.0319    -1.8934     7.4809 C.3     
  28 O28            6.8598    -2.6909     7.6694 O.3     
  29 C29            6.3025    -3.1922     6.4514 C.3     
  30 C30            5.9470    -2.0166     5.5373 C.3     
  31 C31            5.0397    -3.9986     6.7611 C.3     
  32 C32            8.5247    -1.3814     8.8358 C.3     
  33 H33            3.7382     1.0739     2.0616 H       
  34 H34            1.0019     4.4626     0.0160 H       
  35 H35            2.4752     3.9393     0.8667 H       
  36 H36            2.3973     3.8592    -0.9097 H       
  37 H37            1.1522    -1.7509    -0.7389 H       
  38 H38            2.1005    -1.5687     0.7564 H       
  39 H39            0.3369    -1.7931     0.8428 H       
  40 H40            5.8707    -0.1460     0.6685 H       
  41 H41            6.0793     1.6195     0.5791 H       
  42 H42            5.3346     4.1003     4.3516 H       
  43 H43            7.4928     2.9056     0.8281 H       
  44 H44            6.6924     5.1581    -1.1574 H       
  45 H45            7.7306     6.3666    -0.3637 H       
  46 H46            8.3110     4.6975    -0.5774 H       
  47 H47            5.6949     7.1837     4.2648 H       
  48 H48            4.5489     7.3847     2.9178 H       
  49 H49            4.1919     6.2310     4.2253 H       
  50 H50            8.5970    -0.1257     6.3845 H       
  51 H51            6.9537    -0.0729     7.0686 H       
  52 H52            8.8108    -2.4959     7.0136 H       
  53 H53            7.0311    -3.8324     5.9541 H       
  54 H54            5.1789    -1.4058     6.0120 H       
  55 H55            5.5750    -2.3952     4.5853 H       
  56 H56            4.3112    -3.3568     7.2566 H       
  57 H57            4.6155    -4.3803     5.8324 H       
  58 H58            5.2928    -4.8332     7.4150 H       
  59 H59            7.7442    -0.7807     9.3030 H       
  60 H60            8.7651    -2.2281     9.4787 H       
  61 H61            9.4157    -0.7705     8.6912 H       
@<TRIPOS>BOND
   1    1    2 1
   2    1    5 1
   3    2    3 2
   4    3    4 1
   5    3   10 1
   6    4    5 2
   7    4    6 1
   8    5    9 1
   9    6    7 2
  10    6    8 am
  11    8   11 1
  12    8   33 1
  13    9   34 1
  14    9   35 1
  15    9   36 1
  16   10   37 1
  17   10   38 1
  18   10   39 1
  19   11   15 1
  20   11   40 1
  21   11   41 1
  22   12   13 1
  23   12   16 1
  24   13   14 2
  25   13   25 1
  26   14   15 1
  27   15   16 2
  28   16   19 1
  29   17   18 ar
  30   17   22 ar
  31   17   24 1
  32   18   19 ar
  33   18   42 1
  34   19   20 ar
  35   20   21 ar
  36   20   43 1
  37   21   22 ar
  38   21   23 1
  39   23   44 1
  40   23   45 1
  41   23   46 1
  42   24   47 1
  43   24   48 1
  44   24   49 1
  45   25   26 1
  46   25   30 1
  47   26   27 1
  48   26   50 1
  49   26   51 1
  50   27   28 1
  51   27   32 1
  52   27   52 1
  53   28   29 1
  54   29   30 1
  55   29   31 1
  56   29   53 1
  57   30   54 1
  58   30   55 1
  59   31   56 1
  60   31   57 1
  61   31   58 1
  62   32   59 1
  63   32   60 1
  64   32   61 1

#	End of record

