#	Name: ASD03430861
#	Creating user name:	WinNT
#	Creation time:	15. 06. 2019 20:41

#	Modifying user name:	WinNT
#	Modification time:	15. 06. 2019 20:41

#	Program:	/corina/corina34_cracker 3.40 0067  02.08.2006

@<TRIPOS>MOLECULE
ASD03430861
  34   38    0    0    0
SMALL
NO_CHARGES


@<TRIPOS>ATOM
   1 C1            -0.0168     1.3856     0.0097 C.ar    
   2 C2             0.0021    -0.0041     0.0020 C.ar    
   3 C3             1.1885     2.0775     0.0019 C.ar    
   4 C4             2.3982     1.3936    -0.0041 C.ar    
   5 C5             2.3905     0.0012     0.0082 C.ar    
   6 C6             1.1970    -0.6896     0.0049 C.ar    
   7 O7             3.6723     1.8781    -0.0341 O.3     
   8 C8             3.8295    -0.4370     0.0385 C.3     
   9 C9             4.5820     0.8503     0.4027 C.3     
  10 N10            4.5984    -2.5647     0.3649 N.am    
  11 C11            4.0715    -1.5265     1.0437 C.2     
  12 C12            4.2855    -0.9996    -1.2750 C.ar    
  13 C13            4.3247    -0.5045    -2.5596 C.ar    
  14 C14            4.8146    -1.2866    -3.5897 C.ar    
  15 C15            5.2659    -2.5695    -3.3261 C.ar    
  16 C16            5.2285    -3.0700    -2.0390 C.ar    
  17 C17            4.7367    -2.2878    -0.9973 C.ar    
  18 O18            3.8386    -1.4808     2.2331 O.2     
  19 O19           -1.2938     1.8586     0.0360 O.3     
  20 C20           -1.4407    -0.4695    -0.0178 C.3     
  21 C21           -2.1899     0.8262    -0.4093 C.3     
  22 F22            5.7441    -3.3344    -4.3318 F       
  23 H23            1.1849     3.1575     0.0000 H       
  24 H24            1.1990    -1.7696     0.0045 H       
  25 H25            5.5259     0.9133    -0.1388 H       
  26 H26            4.7469     0.9111     1.4785 H       
  27 H27            4.8525    -3.4064     0.7748 H       
  28 H28            3.9720     0.4958    -2.7628 H       
  29 H29            4.8456    -0.8980    -4.5969 H       
  30 H30            5.5818    -4.0711    -1.8401 H       
  31 H31           -1.5890    -1.2467    -0.7675 H       
  32 H32           -1.7516    -0.8165     0.9676 H       
  33 H33           -3.1449     0.8926     0.1118 H       
  34 H34           -2.3332     0.8784    -1.4886 H       
@<TRIPOS>BOND
   1    1    2 ar
   2    1    3 ar
   3    1   19 1
   4    2    6 ar
   5    2   20 1
   6    3    4 ar
   7    3   23 1
   8    4    5 ar
   9    4    7 1
  10    5    6 ar
  11    5    8 1
  12    6   24 1
  13    7    9 1
  14    8    9 1
  15    8   11 1
  16    8   12 1
  17    9   25 1
  18    9   26 1
  19   10   11 am
  20   10   17 1
  21   10   27 1
  22   11   18 2
  23   12   13 ar
  24   12   17 ar
  25   13   14 ar
  26   13   28 1
  27   14   15 ar
  28   14   29 1
  29   15   16 ar
  30   15   22 1
  31   16   17 ar
  32   16   30 1
  33   19   21 1
  34   20   21 1
  35   20   31 1
  36   20   32 1
  37   21   33 1
  38   21   34 1

#	End of record

