#	Name: ASD08178447
#	Creating user name:	WinNT
#	Creation time:	15. 06. 2019 21:18

#	Modifying user name:	WinNT
#	Modification time:	15. 06. 2019 21:18

#	Program:	/corina/corina34_cracker 3.40 0067  02.08.2006

@<TRIPOS>MOLECULE
ASD08178447
  72   76    0    0    0
SMALL
NO_CHARGES


@<TRIPOS>ATOM
   1 C1            -0.0173     1.3839    -0.0008 C.ar    
   2 C2             0.0019    -0.0033    -0.0017 C.ar    
   3 C3            -1.2128    -0.6719     0.0099 C.ar    
   4 C4            -2.3780     0.0923     0.0218 C.ar    
   5 N5            -2.2958     1.4144     0.0217 N.ar    
   6 N6            -1.1681     2.0273     0.0164 N.ar    
   7 C7             1.2772     2.1554    -0.0131 C.3     
   8 C8             1.2801     3.1278    -1.1943 C.3     
   9 C9             2.5944     3.9111    -1.2069 C.3     
  10 C10            2.5972     4.8836    -2.3880 C.3     
  11 C11            3.8917     5.6551    -2.4004 C.2     
  12 N12            4.9805     5.3107    -3.0117 N.2     
  13 N13            5.9631     6.0956    -2.9005 N.2     
  14 C14            5.7991     7.1702    -2.1897 C.2     
  15 S15            4.1940     7.1931    -1.5913 S.3     
  16 N16            6.7647     8.1438    -1.9575 N.am    
  17 C17            7.9951     8.0135    -2.4918 C.2     
  18 O18            8.2603     7.0471    -3.1751 O.2     
  19 C19            9.0414     9.0685    -2.2403 C.3     
  20 C20           10.3185     8.6872    -2.9438 C.ar    
  21 C21           10.5429     9.1035    -4.2427 C.ar    
  22 C22           11.7142     8.7537    -4.8880 C.ar    
  23 C23           12.6614     7.9880    -4.2342 C.ar    
  24 C24           12.4375     7.5725    -2.9349 C.ar    
  25 C25           11.2680     7.9260    -2.2882 C.ar    
  26 N26           -3.6248    -0.5319     0.0332 N.am    
  27 C27           -4.7468     0.2058     0.1496 C.2     
  28 O28           -4.6695     1.4013     0.3382 O.2     
  29 C29           -6.0972    -0.4549     0.0453 C.3     
  30 C30           -7.1779     0.5826     0.2089 C.ar    
  31 C31           -7.6736     1.2451    -0.8987 C.ar    
  32 C32           -7.6776     0.8677     1.4657 C.ar    
  33 C33           -8.6691     1.8194     1.6158 C.ar    
  34 C34           -9.1603     2.4861     0.5092 C.ar    
  35 C35           -8.6648     2.1966    -0.7486 C.ar    
  36 C36           -9.2145     2.1296     2.9860 C.3     
  37 C37           -8.4062     3.2382     3.6093 C.2     
  38 O38           -7.3143     3.0980     4.3671 O.3     
  39 N39           -6.9072     4.1887     4.7075 N.2     
  40 C40           -7.6675     5.1241     4.2222 C.2     
  41 N41           -8.6364     4.5251     3.5071 N.2     
  42 C42           -7.4926     6.6078     4.4199 C.3     
  43 H43            0.9354    -0.5464    -0.0115 H       
  44 H44           -1.2545    -1.7511     0.0094 H       
  45 H45            1.3762     2.7140     0.9176 H       
  46 H46            2.1125     1.4620    -0.1113 H       
  47 H47            1.1812     2.5693    -2.1250 H       
  48 H48            0.4448     3.8212    -1.0961 H       
  49 H49            2.6933     4.4697    -0.2761 H       
  50 H50            3.4296     3.2177    -1.3050 H       
  51 H51            2.4983     4.3250    -3.3188 H       
  52 H52            1.7620     5.5769    -2.2899 H       
  53 H53            6.5526     8.9167    -1.4111 H       
  54 H54            8.6894    10.0273    -2.6207 H       
  55 H55            9.2266     9.1484    -1.1691 H       
  56 H56            9.8028     9.7016    -4.7535 H       
  57 H57           11.8892     9.0783    -5.9031 H       
  58 H58           13.5763     7.7142    -4.7386 H       
  59 H59           13.1774     6.9741    -2.4242 H       
  60 H60           11.0930     7.6014    -1.2731 H       
  61 H61           -3.6847    -1.4971    -0.0426 H       
  62 H62           -6.1947    -0.9302    -0.9307 H       
  63 H63           -6.1948    -1.2077     0.8275 H       
  64 H64           -7.2861     1.0193    -1.8812 H       
  65 H65           -7.2937     0.3468     2.3303 H       
  66 H66           -9.9351     3.2293     0.6265 H       
  67 H67           -9.0487     2.7175    -1.6133 H       
  68 H68          -10.2551     2.4426     2.9005 H       
  69 H69           -9.1531     1.2392     3.6116 H       
  70 H70           -6.8617     7.0082     3.6263 H       
  71 H71           -8.4669     7.0957     4.3905 H       
  72 H72           -7.0227     6.7928     5.3858 H       
@<TRIPOS>BOND
   1    1    2 ar
   2    1    7 1
   3    1    6 ar
   4    2    3 ar
   5    2   43 1
   6    3    4 ar
   7    3   44 1
   8    4    5 ar
   9    4   26 1
  10    5    6 ar
  11    7    8 1
  12    7   45 1
  13    7   46 1
  14    8    9 1
  15    8   47 1
  16    8   48 1
  17    9   10 1
  18    9   49 1
  19    9   50 1
  20   10   11 1
  21   10   51 1
  22   10   52 1
  23   11   12 2
  24   11   15 1
  25   12   13 1
  26   13   14 2
  27   14   15 1
  28   14   16 1
  29   16   17 am
  30   16   53 1
  31   17   18 2
  32   17   19 1
  33   19   20 1
  34   19   54 1
  35   19   55 1
  36   20   21 ar
  37   20   25 ar
  38   21   22 ar
  39   21   56 1
  40   22   23 ar
  41   22   57 1
  42   23   24 ar
  43   23   58 1
  44   24   25 ar
  45   24   59 1
  46   25   60 1
  47   26   27 am
  48   26   61 1
  49   27   28 2
  50   27   29 1
  51   29   30 1
  52   29   62 1
  53   29   63 1
  54   30   31 ar
  55   30   32 ar
  56   31   35 ar
  57   31   64 1
  58   32   33 ar
  59   32   65 1
  60   33   34 ar
  61   33   36 1
  62   34   35 ar
  63   34   66 1
  64   35   67 1
  65   36   37 1
  66   36   68 1
  67   36   69 1
  68   37   38 1
  69   37   41 2
  70   38   39 1
  71   39   40 2
  72   40   41 1
  73   40   42 1
  74   42   70 1
  75   42   71 1
  76   42   72 1

#	End of record

