#	Name: ASD03731344
#	Creating user name:	WinNT
#	Creation time:	15. 06. 2019 20:45

#	Modifying user name:	WinNT
#	Modification time:	15. 06. 2019 20:45

#	Program:	/corina/corina34_cracker 3.40 0067  02.08.2006

@<TRIPOS>MOLECULE
ASD03731344
  62   68    0    0    0
SMALL
NO_CHARGES


@<TRIPOS>ATOM
   1 C1            -0.0183     1.4733     0.0179 C.2     
   2 C2             0.0010    -0.0047     0.0160 C.ar    
   3 C3             1.2171    -0.6899     0.0087 C.ar    
   4 C4             1.2281    -2.0694     0.0069 C.ar    
   5 C5             0.0371    -2.7737     0.0118 C.ar    
   6 C6            -1.1717    -2.1008     0.0185 C.ar    
   7 C7            -1.1968    -0.7214     0.0271 C.ar    
   8 O8             1.0265     2.0949     0.0132 O.2     
   9 N9            -1.1942     2.1319     0.0193 N.am    
  10 C10            0.0568    -4.2806     0.0092 C.3     
  11 O11           -2.0877    -1.5089     6.2869 O.3     
  12 C12           -2.3218    -1.5885     7.7054 C.3     
  13 O13           -2.8216    -2.9253     7.8953 O.3     
  14 C14           -2.2916    -3.6624     6.8751 C.ar    
  15 C15           -1.8415    -2.7909     5.8860 C.ar    
  16 C16           -2.1538    -5.0287     6.7082 C.ar    
  17 C17           -1.5685    -5.5426     5.5550 C.ar    
  18 C18           -1.1302    -4.6624     4.5703 C.ar    
  19 C19           -1.2606    -3.2994     4.7364 C.ar    
  20 O20           -1.3246    -6.8378     5.2039 O.3     
  21 C21           -0.5795    -5.5081     3.4534 C.3     
  22 C22           -1.1065    -6.9116     3.7818 C.3     
  23 N23            0.0702    -4.7711     1.3896 N.am    
  24 C24           -1.0413    -5.0382     2.1040 C.2     
  25 C25            0.9189    -5.4723     3.3957 C.ar    
  26 C26            1.9134    -5.7808     4.2969 C.ar    
  27 C27            3.2420    -5.6414     3.9373 C.ar    
  28 C28            3.5688    -5.1909     2.6711 C.ar    
  29 C29            2.5763    -4.8797     1.7653 C.ar    
  30 C30            1.2362    -5.0174     2.1184 C.ar    
  31 O31           -2.1892    -4.9220     1.7302 O.2     
  32 C32           -2.1784     4.2724    -0.5318 C.ar    
  33 C33           -1.2149     3.5278     0.1327 C.ar    
  34 C34           -0.2683     4.1865     0.9149 C.ar    
  35 C35           -0.3276     5.5663     0.9981 C.ar    
  36 C36           -1.3212     6.2445     0.3044 C.ar    
  37 N37           -2.2035     5.5873    -0.4293 N.ar    
  38 O38           -1.3872     7.5983     0.3800 O.3     
  39 C39           -2.4314     8.2390    -0.3557 C.3     
  40 H40            2.1474    -0.1413     0.0042 H       
  41 H41            2.1683    -2.6008     0.0013 H       
  42 H42           -2.0978    -2.6565     0.0219 H       
  43 H43           -2.1410    -0.1973     0.0373 H       
  44 H44           -2.0261     1.6392    -0.0582 H       
  45 H45           -0.8309    -4.6547    -0.5008 H       
  46 H46            0.9489    -4.6315    -0.5097 H       
  47 H47           -1.3918    -1.4455     8.2556 H       
  48 H48           -3.0664    -0.8540     8.0124 H       
  49 H49           -2.5028    -5.7010     7.4780 H       
  50 H50           -0.9091    -2.6270     3.9678 H       
  51 H51           -0.3614    -7.6705     3.5433 H       
  52 H52           -2.0414    -7.1068     3.2564 H       
  53 H53            1.6559    -6.1322     5.2851 H       
  54 H54            4.0222    -5.8841     4.6435 H       
  55 H55            4.6060    -5.0819     2.3905 H       
  56 H56            2.8394    -4.5280     0.7786 H       
  57 H57           -2.9132     3.7704    -1.1438 H       
  58 H58            0.4934     3.6330     1.4440 H       
  59 H59            0.3899     6.1092     1.5954 H       
  60 H60           -2.3224     8.0098    -1.4157 H       
  61 H61           -3.3979     7.8785    -0.0035 H       
  62 H62           -2.3704     9.3173    -0.2089 H       
@<TRIPOS>BOND
   1    1    2 1
   2    1    8 2
   3    1    9 am
   4    2    3 ar
   5    2    7 ar
   6    3    4 ar
   7    3   40 1
   8    4    5 ar
   9    4   41 1
  10    5    6 ar
  11    5   10 1
  12    6    7 ar
  13    6   42 1
  14    7   43 1
  15    9   33 1
  16    9   44 1
  17   10   23 1
  18   10   45 1
  19   10   46 1
  20   11   12 1
  21   11   15 1
  22   12   13 1
  23   12   47 1
  24   12   48 1
  25   13   14 1
  26   14   15 ar
  27   14   16 ar
  28   15   19 ar
  29   16   17 ar
  30   16   49 1
  31   17   18 ar
  32   17   20 1
  33   18   19 ar
  34   18   21 1
  35   19   50 1
  36   20   22 1
  37   21   22 1
  38   21   24 1
  39   21   25 1
  40   22   51 1
  41   22   52 1
  42   23   24 am
  43   23   30 1
  44   24   31 2
  45   25   26 ar
  46   25   30 ar
  47   26   27 ar
  48   26   53 1
  49   27   28 ar
  50   27   54 1
  51   28   29 ar
  52   28   55 1
  53   29   30 ar
  54   29   56 1
  55   32   33 ar
  56   32   37 ar
  57   32   57 1
  58   33   34 ar
  59   34   35 ar
  60   34   58 1
  61   35   36 ar
  62   35   59 1
  63   36   37 ar
  64   36   38 1
  65   38   39 1
  66   39   60 1
  67   39   61 1
  68   39   62 1

#	End of record

