#	Name: ASD07350001
#	Creating user name:	WinNT
#	Creation time:	15. 06. 2019 21:11

#	Modifying user name:	WinNT
#	Modification time:	15. 06. 2019 21:11

#	Program:	/corina/corina34_cracker 3.40 0067  02.08.2006

@<TRIPOS>MOLECULE
ASD07350001
  44   45    0    0    0
SMALL
NO_CHARGES


@<TRIPOS>ATOM
   1 C1            -0.0187     1.5270     0.0104 C.3     
   2 C2             0.0021    -0.0041     0.0020 C.3     
   3 C3            -0.8233    -0.4825     1.2009 C.3     
   4 C4            -1.1663     0.7398     2.0574 C.3     
   5 C5            -0.7356     1.9905     1.2814 C.3     
   6 C6            -2.6678     0.7846     2.3281 C.3     
   7 C7            -3.0503    -0.2969     3.3125 C.2     
   8 C8            -2.5610    -0.2825     4.5402 C.2     
   9 C9            -2.8569    -1.2426     5.5849 C.2     
  10 O10           -3.1050    -2.5285     5.5649 O.3     
  11 C11           -0.0235    -1.4589     2.0202 C.2     
  12 O12            1.3191     2.0295     0.0004 O.3     
  13 H13           -0.6177     0.6932     2.9980 H       
  14 O14           -3.0210     2.0599     2.8706 O.3     
  15 C15           -0.1619    -2.7476     1.8287 C.2     
  16 C16            0.6288    -3.7161     2.6731 C.3     
  17 C17           -0.2566    -4.2558     3.7988 C.3     
  18 C18           -1.0104    -3.1130     4.4725 C.3     
  19 C19           -2.4608    -3.5135     4.7429 C.3     
  20 O20           -2.8788    -0.7513     6.7159 O.2     
  21 C21           -3.2222    -3.6805     3.4283 C.3     
  22 H22           -0.5534     1.8935    -0.8656 H       
  23 H23           -0.4438    -0.3727    -0.9246 H       
  24 H24            1.0272    -0.3626     0.0868 H       
  25 H25           -1.7412    -0.9526     0.8496 H       
  26 H26           -0.0621     2.5922     1.8907 H       
  27 H27           -1.6120     2.5821     1.0112 H       
  28 H28           -3.2108     0.6286     1.3934 H       
  29 H29           -3.7419    -1.0594     2.9901 H       
  30 H30           -1.8637     0.5330     4.7798 H       
  31 H31            0.6656    -1.0979     2.7716 H       
  32 H32            1.8282     1.7767    -0.7819 H       
  33 H33           -3.9630     2.1567     3.0665 H       
  34 H34           -0.8322    -3.1161     1.0696 H       
  35 H35            0.9721    -4.5424     2.0508 H       
  36 H36            1.4900    -3.2040     3.1007 H       
  37 H37           -0.9485    -4.9897     3.3902 H       
  38 H38            0.3788    -4.7535     4.5381 H       
  39 H39           -0.5254    -2.8860     5.4305 H       
  40 H40           -0.9884    -2.2201     3.8550 H       
  41 H41           -2.4634    -4.4750     5.2696 H       
  42 H42           -2.7460    -4.4563     2.8286 H       
  43 H43           -4.2529    -3.9657     3.6391 H       
  44 H44           -3.2108    -2.7388     2.8795 H       
@<TRIPOS>BOND
   1    1    2 1
   2    1   12 1
   3    1    5 1
   4    1   22 1
   5    2    3 1
   6    2   23 1
   7    2   24 1
   8    3    4 1
   9    3   11 1
  10    3   25 1
  11    4    5 1
  12    4   13 1
  13    4    6 1
  14    5   26 1
  15    5   27 1
  16    6    7 1
  17    6   14 1
  18    6   28 1
  19    7    8 2
  20    7   29 1
  21    8    9 1
  22    8   30 1
  23    9   10 1
  24    9   20 2
  25   10   19 1
  26   11   15 2
  27   11   31 1
  28   12   32 1
  29   14   33 1
  30   15   16 1
  31   15   34 1
  32   16   17 1
  33   16   35 1
  34   16   36 1
  35   17   18 1
  36   17   37 1
  37   17   38 1
  38   18   19 1
  39   18   39 1
  40   18   40 1
  41   19   21 1
  42   19   41 1
  43   21   42 1
  44   21   43 1
  45   21   44 1

#	End of record

