#	Name: ASD09116041
#	Creating user name:	WinNT
#	Creation time:	15. 06. 2019 21:20

#	Modifying user name:	WinNT
#	Modification time:	15. 06. 2019 21:20

#	Program:	/corina/corina34_cracker 3.40 0067  02.08.2006

@<TRIPOS>MOLECULE
ASD09116041
  63   67    0    0    0
SMALL
NO_CHARGES


@<TRIPOS>ATOM
   1 C1            -0.0134     1.3464    -0.0960 C.2     
   2 N2             0.0127     0.0441    -0.4031 N.2     
   3 N3             1.2148     1.7730     0.0737 N.2     
   4 N4             2.0640     0.6750    -0.1390 N.pl3   
   5 C5             1.2578    -0.3798    -0.4340 C.2     
   6 N6            -1.1633     2.1268     0.0194 N.pl3   
   7 C7            -2.4266     1.5315    -0.0828 C.ar    
   8 C8            -2.6078     0.2147     0.3178 C.ar    
   9 C9            -3.8539    -0.3736     0.2174 C.ar    
  10 C10           -4.9254     0.3512    -0.2844 C.ar    
  11 C11           -4.7450     1.6706    -0.6861 C.ar    
  12 C12           -3.4997     2.2605    -0.5797 C.ar    
  13 F13           -5.7879     2.3769    -1.1748 F       
  14 N14           -6.1890    -0.2461    -0.3870 N.3     
  15 C15           -6.1474    -1.3680    -1.2248 C.3     
  16 C16           -7.5640    -1.9158    -1.5089 C.3     
  17 C17           -8.0518    -2.6642    -0.2947 C.3     
  18 N18           -8.8354    -1.8144     0.6307 N.3     
  19 C19           -8.2674    -0.4644     0.8255 C.3     
  20 C20           -6.7651    -0.4985     0.9492 C.3     
  21 C21          -10.2416    -1.7385     0.2127 C.3     
  22 C22            3.4544     0.6679    -0.0640 C.ar    
  23 N23            4.1056    -0.4610    -0.2955 N.ar    
  24 N24            4.0896     1.7933     0.2322 N.ar    
  25 C25            5.4100     1.8092     0.3080 C.ar    
  26 C26            6.1158     0.6537     0.0776 C.ar    
  27 C27            5.4284    -0.5071    -0.2342 C.ar    
  28 N28            1.6724    -1.6670    -0.7159 N.pl3   
  29 C29            6.1381     3.0919     0.6468 C.3     
  30 C30            6.7240     2.9559     2.0554 C.3     
  31 C31            8.0762     2.2729     2.0163 C.3     
  32 C32            8.0336     0.8099     1.6233 C.3     
  33 C33            7.6263     0.6506     0.1549 C.3     
  34 H34           -1.0881     3.0820     0.1703 H       
  35 H35           -1.7741    -0.3504     0.7078 H       
  36 H36           -3.9940    -1.3981     0.5292 H       
  37 H37           -3.3589     3.2850    -0.8910 H       
  38 H38           -5.6769    -1.0909    -2.1681 H       
  39 H39           -5.5533    -2.1473    -0.7473 H       
  40 H40           -8.2394    -1.0874    -1.7227 H       
  41 H41           -7.5295    -2.5907    -2.3641 H       
  42 H42           -8.6765    -3.4953    -0.6221 H       
  43 H43           -7.1908    -3.0646     0.2404 H       
  44 H44           -8.5392     0.1609    -0.0249 H       
  45 H45           -8.6883    -0.0300     1.7323 H       
  46 H46           -6.4474    -1.4774     1.3082 H       
  47 H47           -6.4354     0.2739     1.6441 H       
  48 H48          -10.6734    -2.7394     0.2070 H       
  49 H49          -10.7943    -1.1084     0.9095 H       
  50 H50          -10.3006    -1.3116    -0.7884 H       
  51 H51            5.9581    -1.4301    -0.4186 H       
  52 H52            2.6180    -1.8832    -0.7144 H       
  53 H53            1.0180    -2.3546    -0.9154 H       
  54 H54            6.9416     3.2586    -0.0706 H       
  55 H55            5.4403     3.9288     0.6185 H       
  56 H56            6.8362     3.9475     2.4939 H       
  57 H57            6.0434     2.3679     2.6712 H       
  58 H58            8.7100     2.8029     1.3053 H       
  59 H59            8.5312     2.3518     3.0037 H       
  60 H60            9.0199     0.3702     1.7713 H       
  61 H61            7.3121     0.2903     2.2538 H       
  62 H62            8.0120    -0.2922    -0.2330 H       
  63 H63            8.0258     1.4796    -0.4291 H       
@<TRIPOS>BOND
   1    1    2 1
   2    1    3 2
   3    1    6 1
   4    2    5 2
   5    3    4 1
   6    4    5 1
   7    4   22 1
   8    5   28 1
   9    6    7 1
  10    6   34 1
  11    7    8 ar
  12    7   12 ar
  13    8    9 ar
  14    8   35 1
  15    9   10 ar
  16    9   36 1
  17   10   11 ar
  18   10   14 1
  19   11   12 ar
  20   11   13 1
  21   12   37 1
  22   14   15 1
  23   14   20 1
  24   15   16 1
  25   15   38 1
  26   15   39 1
  27   16   17 1
  28   16   40 1
  29   16   41 1
  30   17   18 1
  31   17   42 1
  32   17   43 1
  33   18   19 1
  34   18   21 1
  35   19   20 1
  36   19   44 1
  37   19   45 1
  38   20   46 1
  39   20   47 1
  40   21   48 1
  41   21   49 1
  42   21   50 1
  43   22   23 ar
  44   22   24 ar
  45   23   27 ar
  46   24   25 ar
  47   25   26 ar
  48   25   29 1
  49   26   27 ar
  50   26   33 1
  51   27   51 1
  52   28   52 1
  53   28   53 1
  54   29   30 1
  55   29   54 1
  56   29   55 1
  57   30   31 1
  58   30   56 1
  59   30   57 1
  60   31   32 1
  61   31   58 1
  62   31   59 1
  63   32   33 1
  64   32   60 1
  65   32   61 1
  66   33   62 1
  67   33   63 1

#	End of record

