#	Name: ASD02448163
#	Creating user name:	WinNT
#	Creation time:	15. 06. 2019 20:21

#	Modifying user name:	WinNT
#	Modification time:	15. 06. 2019 20:21

#	Program:	/corina/corina34_cracker 3.40 0067  02.08.2006

@<TRIPOS>MOLECULE
ASD02448163
  52   56    0    0    0
SMALL
NO_CHARGES


@<TRIPOS>ATOM
   1 C1            -0.3347     1.4681     0.1648 C.ar    
   2 C2            -0.2070     0.0943     0.0947 C.ar    
   3 C3             1.0541    -0.4871     0.0637 C.ar    
   4 C4             2.1862     0.3128     0.1033 C.ar    
   5 C5             2.0552     1.6929     0.1738 C.ar    
   6 C6             0.7910     2.2683     0.2045 C.ar    
   7 N7             3.1929     2.5022     0.2142 N.am    
   8 C8             3.3186     3.9042    -0.2047 C.3     
   9 C9             4.7098     4.4105     0.0016 C.2     
  10 N10            5.5628     3.5143     0.5174 N.am    
  11 S11            4.7185     2.0997     0.7563 S.o2    
  12 O12            5.0410     5.5436    -0.2763 O.2     
  13 O13            4.6322     1.8949     2.1598 O.2     
  14 O14            5.2398     1.1414    -0.1543 O.2     
  15 N15            1.1823    -1.8815    -0.0070 N.pl3   
  16 C16            1.8710    -2.5863    -0.9578 C.2     
  17 C17            0.6512    -2.7845     0.8588 C.2     
  18 N18            0.9863    -3.9844     0.4746 N.2     
  19 C19            1.7383    -3.9009    -0.6418 C.2     
  20 C20            2.3175    -5.0423    -1.3921 C.ar    
  21 C21            2.1019    -6.3490    -0.9544 C.ar    
  22 C22            3.0738    -4.8129    -2.5394 C.ar    
  23 C23            3.6107    -5.8781    -3.2339 C.ar    
  24 C24            3.3986    -7.1729    -2.7931 C.ar    
  25 C25            2.6435    -7.4075    -1.6567 C.ar    
  26 Cl26           4.0763    -8.5078    -3.6720 Cl      
  27 Cl27           1.1551    -6.6441     0.4705 Cl      
  28 C28            0.6896    -2.4049     3.2899 C.ar    
  29 C29            1.3596    -1.2401     3.6145 C.ar    
  30 C30            2.1602    -1.1938     4.7403 C.ar    
  31 C31            2.2908    -2.3132     5.5423 C.ar    
  32 C32            1.6202    -3.4785     5.2171 C.ar    
  33 C33            0.8199    -3.5239     4.0911 C.ar    
  34 Br34           3.3864    -2.2507     7.0823 Br      
  35 C35           -0.1880    -2.4530     2.0658 C.3     
  36 H36           -1.3164     1.9177     0.1842 H       
  37 H37           -1.0889    -0.5285     0.0643 H       
  38 H38            3.1677    -0.1371     0.0797 H       
  39 H39            0.6880     3.3420     0.2593 H       
  40 H40            3.0621     3.9856    -1.2609 H       
  41 H41            2.6270     4.5139     0.3767 H       
  42 H42            6.5001     3.6637     0.7177 H       
  43 H43            2.4141    -2.1766    -1.7966 H       
  44 H44            3.2396    -3.8032    -2.8850 H       
  45 H45            4.1971    -5.7009    -4.1234 H       
  46 H46            2.4812    -8.4197    -1.3166 H       
  47 H47            1.2578    -0.3662     2.9881 H       
  48 H48            2.6838    -0.2838     4.9936 H       
  49 H49            1.7222    -4.3529     5.8428 H       
  50 H50            0.2963    -4.4337     3.8372 H       
  51 H51           -0.6643    -1.4831     1.9219 H       
  52 H52           -0.9534    -3.2177     2.1973 H       
@<TRIPOS>BOND
   1    1    2 ar
   2    1    6 ar
   3    1   36 1
   4    2    3 ar
   5    2   37 1
   6    3    4 ar
   7    3   15 1
   8    4    5 ar
   9    4   38 1
  10    5    6 ar
  11    5    7 1
  12    6   39 1
  13    7    8 1
  14    7   11 am
  15    8    9 1
  16    8   40 1
  17    8   41 1
  18    9   10 am
  19    9   12 2
  20   10   11 am
  21   10   42 1
  22   11   13 2
  23   11   14 2
  24   15   16 1
  25   15   17 1
  26   16   19 2
  27   16   43 1
  28   17   18 2
  29   17   35 1
  30   18   19 1
  31   19   20 1
  32   20   21 ar
  33   20   22 ar
  34   21   27 1
  35   21   25 ar
  36   22   23 ar
  37   22   44 1
  38   23   24 ar
  39   23   45 1
  40   24   25 ar
  41   24   26 1
  42   25   46 1
  43   28   29 ar
  44   28   33 ar
  45   28   35 1
  46   29   30 ar
  47   29   47 1
  48   30   31 ar
  49   30   48 1
  50   31   32 ar
  51   31   34 1
  52   32   33 ar
  53   32   49 1
  54   33   50 1
  55   35   51 1
  56   35   52 1

#	End of record

