#	Name: ASD01150734
#	Creating user name:	WinNT
#	Creation time:	15. 06. 2019 19:04

#	Modifying user name:	WinNT
#	Modification time:	15. 06. 2019 19:04

#	Program:	/corina/corina34_cracker 3.40 0067  02.08.2006

@<TRIPOS>MOLECULE
ASD01150734
  35   37    0    0    0
SMALL
NO_CHARGES


@<TRIPOS>ATOM
   1 C1             0.0101     1.5345     0.4635 C.2     
   2 C2            -0.4878     1.3597     1.8751 C.3     
   3 F3            -1.2985     0.2218     1.9461 F       
   4 F4             0.6025     1.2102     2.7389 F       
   5 N5             3.5993     2.1868    -0.1569 N.ar    
   6 C6             2.4725     1.5638     0.0689 C.ar    
   7 C7             1.2589     2.2614     0.2109 C.ar    
   8 C8             1.2574     3.6643     0.1074 C.ar    
   9 C9             2.4954     4.3075    -0.1377 C.ar    
  10 C10            2.5785     5.7017    -0.2537 C.ar    
  11 C11            3.7874     6.2881    -0.4894 C.ar    
  12 C12            4.9403     5.5169    -0.6167 C.ar    
  13 C13            4.8928     4.1597    -0.5096 C.ar    
  14 C14            3.6661     3.5206    -0.2662 C.ar    
  15 C15            0.0077     4.4400     0.2489 C.ar    
  16 C16           -0.1537     5.3208     1.3207 C.ar    
  17 C17           -1.3227     6.0420     1.4463 C.ar    
  18 C18           -2.3342     5.8945     0.5136 C.ar    
  19 C19           -2.1811     5.0232    -0.5506 C.ar    
  20 C20           -1.0152     4.2999    -0.6917 C.ar    
  21 C21            2.4732     0.0609     0.1794 C.3     
  22 Br22           3.8991     8.1693    -0.6458 Br      
  23 O23           -0.6193     1.0697    -0.4636 O.2     
  24 H24           -1.0656     2.2364     2.1677 H       
  25 H25            1.6903     6.3085    -0.1573 H       
  26 H26            5.8867     6.0025    -0.8035 H       
  27 H27            5.7961     3.5766    -0.6116 H       
  28 H28            0.6348     5.4366     2.0495 H       
  29 H29           -1.4490     6.7232     2.2748 H       
  30 H30           -3.2474     6.4617     0.6168 H       
  31 H31           -2.9747     4.9126    -1.2747 H       
  32 H32           -0.8952     3.6236    -1.5251 H       
  33 H33            2.5376    -0.2263     1.2290 H       
  34 H34            1.5531    -0.3355    -0.2499 H       
  35 H35            3.3296    -0.3427    -0.3608 H       
@<TRIPOS>BOND
   1    1    2 1
   2    1    7 1
   3    1   23 2
   4    2    3 1
   5    2    4 1
   6    2   24 1
   7    5    6 ar
   8    5   14 ar
   9    6    7 ar
  10    6   21 1
  11    7    8 ar
  12    8    9 ar
  13    8   15 1
  14    9   10 ar
  15    9   14 ar
  16   10   11 ar
  17   10   25 1
  18   11   12 ar
  19   11   22 1
  20   12   13 ar
  21   12   26 1
  22   13   14 ar
  23   13   27 1
  24   15   16 ar
  25   15   20 ar
  26   16   17 ar
  27   16   28 1
  28   17   18 ar
  29   17   29 1
  30   18   19 ar
  31   18   30 1
  32   19   20 ar
  33   19   31 1
  34   20   32 1
  35   21   33 1
  36   21   34 1
  37   21   35 1

#	End of record

