#	Name: ASD01917257
#	Creating user name:	WinNT
#	Creation time:	15. 06. 2019 20:08

#	Modifying user name:	WinNT
#	Modification time:	15. 06. 2019 20:08

#	Program:	/corina/corina34_cracker 3.40 0067  02.08.2006

@<TRIPOS>MOLECULE
ASD01917257
  31   33    0    0    0
SMALL
NO_CHARGES


@<TRIPOS>ATOM
   1 C1            -0.0167     1.3804     0.0096 C.ar    
   2 C2             0.0021    -0.0041     0.0020 C.ar    
   3 C3             1.2110    -0.6789    -0.0131 C.ar    
   4 C4             2.3973     0.0299    -0.0207 C.ar    
   5 C5             2.3774     1.4122    -0.0131 C.ar    
   6 C6             1.1709     2.0870     0.0021 C.ar    
   7 C7             3.6717     2.1840    -0.0208 C.3     
   8 O8             4.0685     2.4351    -1.3704 O.3     
   9 C9             5.2249     3.1266    -1.5555 C.2     
  10 N10            6.0077     3.5824    -0.5992 N.2     
  11 N11            7.0879     4.2317    -1.1818 N.pl3   
  12 C12            6.9335     4.1556    -2.5488 C.2     
  13 C13            5.7835     3.4665    -2.7956 C.2     
  14 C14            8.2356     4.9065    -0.5745 C.3     
  15 C15            9.4367     4.7995    -1.5137 C.3     
  16 N16            9.1032     5.1286    -2.8941 N.am    
  17 C17            7.9260     4.7587    -3.4549 C.2     
  18 O18            7.7016     4.9160    -4.6399 O.2     
  19 F19           -1.1583    -0.6959     0.0098 F       
  20 H20           -0.9591     1.9078     0.0170 H       
  21 H21            1.2268    -1.7588    -0.0187 H       
  22 H22            3.3404    -0.4962    -0.0321 H       
  23 H23            1.1565     3.1669     0.0080 H       
  24 H24            3.5328     3.1317     0.4995 H       
  25 H25            4.4442     1.6029     0.4829 H       
  26 H26            5.3746     3.2317    -3.7672 H       
  27 H27            7.9949     5.9567    -0.4093 H       
  28 H28            8.4745     4.4328     0.3776 H       
  29 H29           10.2152     5.4796    -1.1681 H       
  30 H30            9.8215     3.7803    -1.4780 H       
  31 H31            9.7426     5.6267    -3.4270 H       
@<TRIPOS>BOND
   1    1    2 ar
   2    1    6 ar
   3    1   20 1
   4    2    3 ar
   5    2   19 1
   6    3    4 ar
   7    3   21 1
   8    4    5 ar
   9    4   22 1
  10    5    6 ar
  11    5    7 1
  12    6   23 1
  13    7    8 1
  14    7   24 1
  15    7   25 1
  16    8    9 1
  17    9   10 2
  18    9   13 1
  19   10   11 1
  20   11   12 1
  21   11   14 1
  22   12   13 2
  23   12   17 1
  24   13   26 1
  25   14   15 1
  26   14   27 1
  27   14   28 1
  28   15   16 1
  29   15   29 1
  30   15   30 1
  31   16   17 am
  32   16   31 1
  33   17   18 2

#	End of record

