#	Name: ASD06610007
#	Creating user name:	WinNT
#	Creation time:	15. 06. 2019 21:07

#	Modifying user name:	WinNT
#	Modification time:	15. 06. 2019 21:07

#	Program:	/corina/corina34_cracker 3.40 0067  02.08.2006

@<TRIPOS>MOLECULE
ASD06610007
 342  343    0    0    0
SMALL
NO_CHARGES


@<TRIPOS>ATOM
   1 C1            -7.6455   -16.2077     6.0491 C.2     
   2 O2            -8.1847   -17.2936     6.0162 O.2     
   3 N3            -5.5756   -17.4625     6.2234 N.am    
   4 C4            -6.1460   -16.1143     6.1665 C.3     
   5 C5            -5.5844   -15.3738     4.9511 C.3     
   6 C6            -4.0555   -15.3876     5.0071 C.3     
   7 O7            -6.0230   -16.0207     3.7547 O.3     
   8 C8           -10.3725   -13.9282     5.1946 C.2     
   9 O9            -9.6540   -12.9598     5.0651 O.2     
  10 N10           -8.3869   -15.0847     5.9750 N.am    
  11 C11           -9.8441   -15.1756     5.8548 C.3     
  12 C12          -10.4629   -15.3169     7.2470 C.3     
  13 C13          -10.0358   -16.6513     7.8618 C.3     
  14 C14           -9.9836   -14.1686     8.1371 C.3     
  15 C15          -13.6874   -12.6455     4.3404 C.2     
  16 O16          -14.2470   -13.5903     4.8554 O.2     
  17 N17          -11.6435   -13.8888     4.7480 N.am    
  18 C18          -12.1874   -12.6460     4.1949 C.3     
  19 C19          -11.8187   -12.5427     2.7136 C.3     
  20 C20          -10.3231   -12.4195     2.5756 C.ar    
  21 C21           -9.5445   -13.5551     2.4523 C.ar    
  22 C22           -8.1726   -13.4421     2.3257 C.ar    
  23 C23           -7.5793   -12.1936     2.3221 C.ar    
  24 C24           -8.3580   -11.0580     2.4446 C.ar    
  25 C25           -9.7303   -11.1708     2.5668 C.ar    
  26 C26          -16.4713   -10.6983     2.9910 C.2     
  27 O27          -15.7557   -10.1170     2.2030 O.2     
  28 N28          -14.4070   -11.5952     3.8983 N.am    
  29 C29          -15.8651   -11.5948     4.0397 C.3     
  30 C30          -16.2424   -11.0803     5.4304 C.3     
  31 C31          -15.7331   -12.0580     6.4914 C.3     
  32 C32          -16.1105   -11.5436     7.8820 C.3     
  33 N33          -15.6228   -12.4797     8.8979 N.pl3   
  34 C34          -15.8455   -12.2254    10.2305 C.2     
  35 N35          -15.4117   -13.0583    11.1343 N.2     
  36 N36          -16.5259   -11.0925    10.6097 N.pl3   
  37 C37          -19.7394    -9.1766     2.3854 C.2     
  38 O38          -20.1618    -9.5186     3.4696 O.2     
  39 N39          -17.8085   -10.5425     2.9287 N.am    
  40 C40          -18.3978    -9.6709     1.9092 C.3     
  41 C41          -18.5760   -10.4561     0.6082 C.3     
  42 O42          -19.5297   -11.5011     0.8093 O.3     
  43 C43          -22.6305    -7.5215     0.8803 C.2     
  44 O44          -22.1944    -7.6583    -0.2431 O.2     
  45 N45          -20.4699    -8.3545     1.6063 N.am    
  46 C46          -21.7742    -7.8739     2.0692 C.3     
  47 C47          -21.5797    -6.6333     2.9433 C.3     
  48 C48          -25.7444    -5.6910     0.3179 C.2     
  49 O49          -25.7801    -5.2893     1.4617 O.2     
  50 N50          -23.8811    -7.0543     1.0654 N.am    
  51 C51          -24.7136    -6.7117    -0.0904 C.3     
  52 C52          -25.4170    -7.9700    -0.6031 C.3     
  53 C53          -24.3748    -8.9567    -1.1333 C.3     
  54 C54          -25.0782   -10.2150    -1.6460 C.3     
  55 N55          -24.0803   -11.1598    -2.1536 N.pl3   
  56 C56          -24.4794   -12.3702    -2.6692 C.2     
  57 N57          -25.7456   -12.6771    -2.7063 N.2     
  58 N58          -23.5429   -13.2569    -3.1455 N.pl3   
  59 C59          -28.8176    -4.3228    -1.1126 C.2     
  60 O60          -28.8270    -5.1360    -2.0123 O.2     
  61 N61          -26.6266    -5.2246    -0.5880 N.am    
  62 C62          -27.6286    -4.2323    -0.1911 C.3     
  63 C63          -27.0211    -2.8309    -0.2785 C.3     
  64 C64          -25.8929    -2.6992     0.7466 C.3     
  65 C65          -25.2946    -1.3188     0.6605 C.2     
  66 O66          -25.7261    -0.5220    -0.1388 O.2     
  67 O67          -24.2821    -0.9744     1.4717 O.3     
  68 C68          -31.7443    -2.2632    -1.8580 C.2     
  69 O69          -31.3311    -1.3368    -1.1931 O.2     
  70 N70          -29.8705    -3.5000    -0.9369 N.am    
  71 C71          -31.0263    -3.5879    -1.8328 C.3     
  72 C72          -31.9791    -4.6748    -1.3309 C.3     
  73 C73          -31.2910    -6.0383    -1.4228 C.3     
  74 C74          -32.2437    -7.1252    -0.9209 C.3     
  75 C75          -31.5557    -8.4887    -1.0129 C.3     
  76 N76          -32.4704    -9.5322    -0.5310 N.3     
  77 C77          -34.9864    -1.0378    -3.0199 C.2     
  78 O78          -35.3919    -2.1584    -3.2452 O.2     
  79 N79          -32.8455    -2.1079    -2.6194 N.am    
  80 C80          -33.5434    -0.8200    -2.6439 C.3     
  81 C81          -32.8815     0.0993    -3.6723 C.3     
  82 C82          -31.4541     0.4209    -3.2250 C.3     
  83 C83          -30.7922     1.3401    -4.2534 C.3     
  84 N84          -29.4255     1.6481    -3.8250 N.pl3   
  85 C85          -28.6306     2.4629    -4.5960 C.2     
  86 N86          -29.0930     2.9614    -5.7080 N.2     
  87 N87          -27.3480     2.7519    -4.1940 N.pl3   
  88 C88          -37.7836     1.0605    -4.0859 C.2     
  89 O89          -37.0766     2.0385    -4.2067 O.2     
  90 N90          -35.8263     0.0128    -3.1058 N.am    
  91 C91          -37.2291    -0.1989    -3.4714 C.3     
  92 C92          -38.0345    -0.5530    -2.2196 C.3     
  93 C93          -37.5533    -1.8959    -1.6665 C.3     
  94 C94          -38.3586    -2.2499    -0.4148 C.3     
  95 N95          -37.8979    -3.5358     0.1149 N.pl3   
  96 C96          -38.4788    -4.0619     1.2444 C.2     
  97 N97          -38.0689    -5.2060     1.7156 N.2     
  98 N98          -39.4922    -3.3814     1.8769 N.pl3   
  99 C99          -41.0996     2.3563    -4.9153 C.2     
 100 O100         -41.6599     1.4463    -4.3419 O.2     
 101 N101         -39.0651     1.0999    -4.5013 N.am    
 102 C102         -39.6042     2.3241    -5.0987 C.3     
 103 C103         -39.2729     2.3515    -6.5922 C.3     
 104 O104         -39.9509     1.2794    -7.2503 O.3     
 105 C105         -43.8877     4.2839    -6.2843 C.2     
 106 O106         -43.1842     4.8155    -7.1170 O.2     
 107 N107         -41.8143     3.3964    -5.3883 N.am    
 108 C108         -43.2681     3.4278    -5.2099 C.3     
 109 C109         -43.6009     4.0132    -3.8361 C.3     
 110 C110         -45.7732     6.6769    -7.1362 C.2     
 111 O111         -45.2663     7.0725    -6.1078 O.2     
 112 N112         -45.2236     4.4587    -6.3198 N.am    
 113 C113         -45.8363     5.1993    -7.4254 C.3     
 114 C114         -47.2973     4.7714    -7.5781 C.3     
 115 C115         -47.3566     3.3177    -7.9709 C.2     
 116 O116         -46.3377     2.7157    -8.2146 O.2     
 117 O117         -48.5413     2.6916    -8.0499 O.3     
 118 C118         -47.6315     9.5723    -8.1140 C.2     
 119 O119         -48.4584     8.8727    -8.6596 O.2     
 120 N120         -46.2800     7.5589    -8.0204 N.am    
 121 C121         -46.3068     8.9874    -7.6967 C.3     
 122 C122         -45.1769     9.7005    -8.4422 C.3     
 123 C123         -45.2725     9.3845    -9.9361 C.3     
 124 C124         -46.5422    10.0159   -10.5107 C.3     
 125 C125         -43.8278     9.2192    -7.9044 C.3     
 126 C126         -48.9510    12.9530    -8.5530 C.2     
 127 O127         -47.8845    13.4643    -8.2846 O.2     
 128 N128         -47.8973    10.8729    -7.8809 N.am    
 129 C129         -49.1392    11.4677    -8.3808 C.3     
 130 C130         -50.2674    11.2092    -7.3802 C.3     
 131 C131         -50.5384     9.7290    -7.3001 C.ar    
 132 C132         -49.8584     8.9505    -6.3822 C.ar    
 133 C133         -50.1070     7.5927    -6.3088 C.ar    
 134 C134         -51.0359     7.0134    -7.1529 C.ar    
 135 C135         -51.7165     7.7920    -8.0702 C.ar    
 136 C136         -51.4711     9.1506    -8.1406 C.ar    
 137 C137         -50.0407    15.8513    -7.8599 C.2     
 138 O138         -50.3446    15.2062    -6.8845 O.2     
 139 N139         -49.9679    13.7131    -9.0054 N.am    
 140 C140         -49.7850    15.1570    -9.1728 C.3     
 141 C141         -50.7671    15.6770   -10.2245 C.3     
 142 C142         -50.4928    17.1586   -10.4900 C.3     
 143 C143         -51.3899    17.6471   -11.6290 C.3     
 144 C144         -52.1991    15.5070    -9.7132 C.3     
 145 O145         -49.9309    17.1863    -7.7742 O.3     
 146 C146          -4.3812   -17.6646     6.8142 C.2     
 147 O147          -3.7786   -16.7302     7.2988 O.2     
 148 C148           9.8280   -28.5760    12.3121 C.3     
 149 C149           9.2323   -27.1680    12.2527 C.3     
 150 C150           7.8819   -27.2154    11.5351 C.3     
 151 C151           7.2863   -25.8073    11.4756 C.3     
 152 C152           5.9358   -25.8547    10.7580 C.3     
 153 C153           5.3402   -24.4467    10.6986 C.3     
 154 C154           3.9897   -24.4941     9.9810 C.3     
 155 C155           3.3941   -23.0860     9.9215 C.3     
 156 C156           2.0437   -23.1334     9.2039 C.3     
 157 C157           1.4480   -21.7254     9.1445 C.3     
 158 C158           0.0976   -21.7727     8.4269 C.3     
 159 C159          -0.4980   -20.3647     8.3674 C.3     
 160 C160          -1.8485   -20.4121     7.6498 C.3     
 161 C161          -2.4441   -19.0040     7.5904 C.3     
 162 C162          -3.7946   -19.0514     6.8728 C.3     
 163 H163          -6.0576   -18.2098     5.8359 H       
 164 H164          -5.8858   -15.5711     7.0750 H       
 165 H165          -5.9389   -14.3431     4.9578 H       
 166 H166          -3.7009   -16.4183     5.0004 H       
 167 H167          -3.6554   -14.8601     4.1412 H       
 168 H168          -3.7209   -14.8942     5.9197 H       
 169 H169          -5.7431   -16.9434     3.6812 H       
 170 H170          -7.9557   -14.2162     6.0014 H       
 171 H171         -10.1054   -16.0447     5.2511 H       
 172 H172         -11.5495   -15.2852     7.1665 H       
 173 H173          -8.9632   -16.6355     8.0550 H       
 174 H174         -10.5714   -16.8079     8.7981 H       
 175 H175         -10.2685   -17.4610     7.1703 H       
 176 H176         -10.2879   -13.2180     7.6991 H       
 177 H177         -10.4244   -14.2693     9.1289 H       
 178 H178          -8.8970   -14.2003     8.2175 H       
 179 H179         -12.1982   -14.6833     4.7928 H       
 180 H180         -11.7698   -11.7953     4.7335 H       
 181 H181         -12.1594   -13.4366     2.1912 H       
 182 H182         -12.2971   -11.6642     2.2805 H       
 183 H183         -10.0080   -14.5306     2.4551 H       
 184 H184          -7.5643   -14.3294     2.2301 H       
 185 H185          -6.5074   -12.1054     2.2240 H       
 186 H186          -7.8944   -10.0825     2.4421 H       
 187 H187         -10.3390   -10.2834     2.6587 H       
 188 H188         -13.9594   -10.8396     3.4864 H       
 189 H189         -16.2428   -12.6093     3.9129 H       
 190 H190         -15.7899   -10.1018     5.5909 H       
 191 H191         -17.3266   -10.9958     5.5047 H       
 192 H192         -16.1857   -13.0365     6.3308 H       
 193 H193         -14.6490   -12.1425     6.4170 H       
 194 H194         -15.6579   -10.5651     8.0425 H       
 195 H195         -17.1946   -11.4591     7.9563 H       
 196 H196         -15.1428   -13.2790     8.6303 H       
 197 H197         -15.5688   -12.8789    12.0746 H       
 198 H198         -16.8488   -10.4727     9.9371 H       
 199 H199         -16.6831   -10.9131    11.5500 H       
 200 H200         -18.3808   -11.0074     3.5590 H       
 201 H201         -17.7389    -8.8207     1.7331 H       
 202 H202         -18.9309    -9.7861    -0.1749 H       
 203 H203         -17.6206   -10.8884     0.3109 H       
 204 H204         -19.6929   -12.0412     0.0239 H       
 205 H205         -20.1321    -8.0809     0.7392 H       
 206 H206         -22.2637    -8.6551     2.6508 H       
 207 H207         -22.5501    -6.2758     3.2877 H       
 208 H208         -20.9603    -6.8882     3.8032 H       
 209 H209         -21.0902    -5.8522     2.3617 H       
 210 H210         -24.2300    -6.9449     1.9639 H       
 211 H211         -24.0863    -6.2987    -0.8803 H       
 212 H212         -25.9739    -8.4325     0.2118 H       
 213 H213         -26.1038    -7.7008    -1.4056 H       
 214 H214         -23.8180    -8.4941    -1.9481 H       
 215 H215         -23.6880    -9.2259    -0.3308 H       
 216 H216         -25.6351   -10.6775    -0.8311 H       
 217 H217         -25.7650    -9.9458    -2.4485 H       
 218 H218         -23.1380   -10.9314    -2.1260 H       
 219 H219         -26.0272   -13.5311    -3.0701 H       
 220 H220         -22.6005   -13.0285    -3.1179 H       
 221 H221         -23.8244   -14.1109    -3.5093 H       
 222 H222         -26.5980    -5.5459    -1.5028 H       
 223 H223         -27.9470    -4.4271     0.8330 H       
 224 H224         -26.6226    -2.6694    -1.2801 H       
 225 H225         -27.7905    -2.0876    -0.0695 H       
 226 H226         -26.2915    -2.8606     1.7482 H       
 227 H227         -25.1235    -3.4424     0.5376 H       
 228 H228         -23.9311    -0.0780     1.3796 H       
 229 H229         -29.8630    -2.8496    -0.2173 H       
 230 H230         -30.6883    -3.8372    -2.8386 H       
 231 H231         -32.2472    -4.4724    -0.2939 H       
 232 H232         -32.8798    -4.6802    -1.9447 H       
 233 H233         -31.0228    -6.2407    -2.4597 H       
 234 H234         -30.3903    -6.0329    -0.8090 H       
 235 H235         -32.5119    -6.9228     0.1160 H       
 236 H236         -33.1444    -7.1306    -1.5348 H       
 237 H237         -31.2875    -8.6911    -2.0498 H       
 238 H238         -30.6550    -8.4833    -0.3991 H       
 239 H239         -33.3400    -9.5152    -1.0425 H       
 240 H240         -32.0389   -10.4429    -0.5817 H       
 241 H241         -33.1759    -2.8488    -3.1511 H       
 242 H242         -33.4905    -0.3593    -1.6575 H       
 243 H243         -32.8549    -0.3992    -4.6413 H       
 244 H244         -33.4534     1.0235    -3.7548 H       
 245 H245         -31.4807     0.9193    -2.2560 H       
 246 H246         -30.8823    -0.5034    -3.1425 H       
 247 H247         -30.7657     0.8417    -5.2224 H       
 248 H248         -31.3641     2.2644    -4.3358 H       
 249 H249         -29.0815     1.2771    -2.9974 H       
 250 H250         -28.5321     3.5362    -6.2520 H       
 251 H251         -27.0040     2.3809    -3.3664 H       
 252 H252         -26.7872     3.3267    -4.7379 H       
 253 H253         -35.5020     0.9090    -2.9256 H       
 254 H254         -37.2980    -1.0150    -4.1906 H       
 255 H255         -37.8939     0.2218    -1.4659 H       
 256 H256         -39.0916    -0.6233    -2.4756 H       
 257 H257         -37.6938    -2.6706    -2.4202 H       
 258 H258         -36.4961    -1.8256    -1.4105 H       
 259 H259         -38.2181    -1.4752     0.3390 H       
 260 H260         -39.4158    -2.3203    -0.6707 H       
 261 H261         -37.1829    -4.0160    -0.3314 H       
 262 H262         -38.4788    -5.5772     2.5125 H       
 263 H263         -39.7973    -2.5300     1.5262 H       
 264 H264         -39.9021    -3.7526     2.6738 H       
 265 H265         -39.6305     0.3177    -4.4048 H       
 266 H266         -39.1596     3.1922    -4.6120 H       
 267 H267         -39.5953     3.3014    -7.0185 H       
 268 H268         -38.1972     2.2388    -6.7279 H       
 269 H269         -39.7864     1.2355    -8.2021 H       
 270 H270         -41.3662     4.1243    -5.8468 H       
 271 H271         -43.6645     2.4147    -5.2789 H       
 272 H272         -43.2044     5.0262    -3.7672 H       
 273 H273         -44.6825     4.0365    -3.7034 H       
 274 H274         -43.1527     3.3940    -3.0590 H       
 275 H275         -45.7794     4.0942    -5.6133 H       
 276 H276         -45.2970     4.9863    -8.3483 H       
 277 H277         -47.8184     4.9135    -6.6313 H       
 278 H278         -47.7742     5.3759    -8.3496 H       
 279 H279         -48.5288     1.7592    -8.3058 H       
 280 H280         -46.6271     7.2477    -8.8711 H       
 281 H281         -46.1735     9.1192    -6.6229 H       
 282 H282         -45.2649    10.7765    -8.2920 H       
 283 H283         -44.4007     9.7898   -10.4498 H       
 284 H284         -45.3079     8.3043   -10.0775 H       
 285 H285         -46.4923    10.0060   -11.5995 H       
 286 H286         -47.4118     9.4470   -10.1817 H       
 287 H287         -46.6272    11.0445   -10.1602 H       
 288 H288         -43.6884     8.1689    -8.1604 H       
 289 H289         -43.0275     9.8108    -8.3491 H       
 290 H290         -43.8063     9.3351    -6.8208 H       
 291 H291         -47.2663    11.4150    -7.3821 H       
 292 H292         -49.3956    11.0202    -9.3411 H       
 293 H293         -49.9734    11.5785    -6.3977 H       
 294 H294         -51.1692    11.7265    -7.7078 H       
 295 H295         -49.1327     9.4031    -5.7227 H       
 296 H296         -49.5752     6.9843    -5.5921 H       
 297 H297         -51.2295     5.9524    -7.0960 H       
 298 H298         -52.4419     7.3393    -8.7299 H       
 299 H299         -52.0055     9.7595    -8.8548 H       
 300 H300         -50.8209    13.3042    -9.2201 H       
 301 H301         -48.7642    15.3587    -9.4976 H       
 302 H302         -50.6419    15.1129   -11.1488 H       
 303 H303         -50.7038    17.7343    -9.5888 H       
 304 H304         -49.4473    17.2903   -10.7688 H       
 305 H305         -51.1945    18.7027   -11.8182 H       
 306 H306         -51.1789    17.0714   -12.5302 H       
 307 H307         -52.4354    17.5154   -11.3502 H       
 308 H308         -52.8987    15.8774   -10.4625 H       
 309 H309         -52.3944    14.4514    -9.5241 H       
 310 H310         -52.3242    16.0710    -8.7889 H       
 311 H311         -50.1045    17.5866    -6.9112 H       
 312 H312           9.1505   -29.2345    12.8558 H       
 313 H313           9.9677   -28.9545    11.2995 H       
 314 H314          10.7900   -28.5423    12.8234 H       
 315 H315           9.0926   -26.7896    13.2653 H       
 316 H316           9.9098   -26.5095    11.7090 H       
 317 H317           8.0216   -27.5938    10.5225 H       
 318 H318           7.2044   -27.8738    12.0788 H       
 319 H319           7.1465   -25.4289    12.4882 H       
 320 H320           7.9637   -25.1489    10.9319 H       
 321 H321           6.0755   -26.2331     9.7454 H       
 322 H322           5.2584   -26.5132    11.3017 H       
 323 H323           5.2004   -24.0682    11.7112 H       
 324 H324           6.0176   -23.7882    10.1549 H       
 325 H325           4.1295   -24.8725     8.9684 H       
 326 H326           3.3123   -25.1525    10.5247 H       
 327 H327           3.2544   -22.7076    10.9341 H       
 328 H328           4.0716   -22.4276     9.3778 H       
 329 H329           2.1834   -23.5118     8.1913 H       
 330 H330           1.3662   -23.7918     9.7476 H       
 331 H331           1.3083   -21.3469    10.1571 H       
 332 H332           2.1255   -21.0669     8.6008 H       
 333 H333           0.2373   -22.1512     7.4143 H       
 334 H334          -0.5799   -22.4312     8.9706 H       
 335 H335          -0.6378   -19.9863     9.3800 H       
 336 H336           0.1794   -19.7063     7.8237 H       
 337 H337          -1.7088   -20.7905     6.6372 H       
 338 H338          -2.5259   -21.0705     8.1935 H       
 339 H339          -2.5839   -18.6256     8.6030 H       
 340 H340          -1.7667   -18.3456     7.0467 H       
 341 H341          -4.4720   -19.7099     7.4165 H       
 342 H342          -3.6548   -19.4299     5.8602 H       
@<TRIPOS>BOND
   1    1    2 2
   2    1    4 1
   3    1   10 am
   4    3  146 am
   5    3    4 1
   6    3  163 1
   7    4    5 1
   8    4  164 1
   9    5    6 1
  10    5    7 1
  11    5  165 1
  12    6  166 1
  13    6  167 1
  14    6  168 1
  15    7  169 1
  16    8    9 2
  17    8   11 1
  18    8   17 am
  19   10   11 1
  20   10  170 1
  21   11   12 1
  22   11  171 1
  23   12   13 1
  24   12   14 1
  25   12  172 1
  26   13  173 1
  27   13  174 1
  28   13  175 1
  29   14  176 1
  30   14  177 1
  31   14  178 1
  32   15   16 2
  33   15   18 1
  34   15   28 am
  35   17   18 1
  36   17  179 1
  37   18   19 1
  38   18  180 1
  39   19   20 1
  40   19  181 1
  41   19  182 1
  42   20   21 ar
  43   20   25 ar
  44   21   22 ar
  45   21  183 1
  46   22   23 ar
  47   22  184 1
  48   23   24 ar
  49   23  185 1
  50   24   25 ar
  51   24  186 1
  52   25  187 1
  53   26   27 2
  54   26   29 1
  55   26   39 am
  56   28   29 1
  57   28  188 1
  58   29   30 1
  59   29  189 1
  60   30   31 1
  61   30  190 1
  62   30  191 1
  63   31   32 1
  64   31  192 1
  65   31  193 1
  66   32   33 1
  67   32  194 1
  68   32  195 1
  69   33   34 1
  70   33  196 1
  71   34   35 2
  72   34   36 1
  73   35  197 1
  74   36  198 1
  75   36  199 1
  76   37   38 2
  77   37   40 1
  78   37   45 am
  79   39   40 1
  80   39  200 1
  81   40   41 1
  82   40  201 1
  83   41   42 1
  84   41  202 1
  85   41  203 1
  86   42  204 1
  87   43   44 2
  88   43   46 1
  89   43   50 am
  90   45   46 1
  91   45  205 1
  92   46   47 1
  93   46  206 1
  94   47  207 1
  95   47  208 1
  96   47  209 1
  97   48   49 2
  98   48   51 1
  99   48   61 am
 100   50   51 1
 101   50  210 1
 102   51   52 1
 103   51  211 1
 104   52   53 1
 105   52  212 1
 106   52  213 1
 107   53   54 1
 108   53  214 1
 109   53  215 1
 110   54   55 1
 111   54  216 1
 112   54  217 1
 113   55   56 1
 114   55  218 1
 115   56   57 2
 116   56   58 1
 117   57  219 1
 118   58  220 1
 119   58  221 1
 120   59   60 2
 121   59   62 1
 122   59   70 am
 123   61   62 1
 124   61  222 1
 125   62   63 1
 126   62  223 1
 127   63   64 1
 128   63  224 1
 129   63  225 1
 130   64   65 1
 131   64  226 1
 132   64  227 1
 133   65   66 2
 134   65   67 1
 135   67  228 1
 136   68   69 2
 137   68   71 1
 138   68   79 am
 139   70   71 1
 140   70  229 1
 141   71   72 1
 142   71  230 1
 143   72   73 1
 144   72  231 1
 145   72  232 1
 146   73   74 1
 147   73  233 1
 148   73  234 1
 149   74   75 1
 150   74  235 1
 151   74  236 1
 152   75   76 1
 153   75  237 1
 154   75  238 1
 155   76  239 1
 156   76  240 1
 157   77   78 2
 158   77   80 1
 159   77   90 am
 160   79   80 1
 161   79  241 1
 162   80   81 1
 163   80  242 1
 164   81   82 1
 165   81  243 1
 166   81  244 1
 167   82   83 1
 168   82  245 1
 169   82  246 1
 170   83   84 1
 171   83  247 1
 172   83  248 1
 173   84   85 1
 174   84  249 1
 175   85   86 2
 176   85   87 1
 177   86  250 1
 178   87  251 1
 179   87  252 1
 180   88   89 2
 181   88   91 1
 182   88  101 am
 183   90   91 1
 184   90  253 1
 185   91   92 1
 186   91  254 1
 187   92   93 1
 188   92  255 1
 189   92  256 1
 190   93   94 1
 191   93  257 1
 192   93  258 1
 193   94   95 1
 194   94  259 1
 195   94  260 1
 196   95   96 1
 197   95  261 1
 198   96   97 2
 199   96   98 1
 200   97  262 1
 201   98  263 1
 202   98  264 1
 203   99  100 2
 204   99  102 1
 205   99  107 am
 206  101  102 1
 207  101  265 1
 208  102  103 1
 209  102  266 1
 210  103  104 1
 211  103  267 1
 212  103  268 1
 213  104  269 1
 214  105  106 2
 215  105  108 1
 216  105  112 am
 217  107  108 1
 218  107  270 1
 219  108  109 1
 220  108  271 1
 221  109  272 1
 222  109  273 1
 223  109  274 1
 224  110  111 2
 225  110  113 1
 226  110  120 am
 227  112  113 1
 228  112  275 1
 229  113  114 1
 230  113  276 1
 231  114  115 1
 232  114  277 1
 233  114  278 1
 234  115  116 2
 235  115  117 1
 236  117  279 1
 237  118  119 2
 238  118  121 1
 239  118  128 am
 240  120  121 1
 241  120  280 1
 242  121  122 1
 243  121  281 1
 244  122  123 1
 245  122  125 1
 246  122  282 1
 247  123  124 1
 248  123  283 1
 249  123  284 1
 250  124  285 1
 251  124  286 1
 252  124  287 1
 253  125  288 1
 254  125  289 1
 255  125  290 1
 256  126  127 2
 257  126  129 1
 258  126  139 am
 259  128  129 1
 260  128  291 1
 261  129  130 1
 262  129  292 1
 263  130  131 1
 264  130  293 1
 265  130  294 1
 266  131  132 ar
 267  131  136 ar
 268  132  133 ar
 269  132  295 1
 270  133  134 ar
 271  133  296 1
 272  134  135 ar
 273  134  297 1
 274  135  136 ar
 275  135  298 1
 276  136  299 1
 277  137  138 2
 278  137  140 1
 279  137  145 1
 280  139  140 1
 281  139  300 1
 282  140  141 1
 283  140  301 1
 284  141  142 1
 285  141  144 1
 286  141  302 1
 287  142  143 1
 288  142  303 1
 289  142  304 1
 290  143  305 1
 291  143  306 1
 292  143  307 1
 293  144  308 1
 294  144  309 1
 295  144  310 1
 296  145  311 1
 297  146  147 2
 298  146  162 1
 299  148  149 1
 300  148  312 1
 301  148  313 1
 302  148  314 1
 303  149  150 1
 304  149  315 1
 305  149  316 1
 306  150  151 1
 307  150  317 1
 308  150  318 1
 309  151  152 1
 310  151  319 1
 311  151  320 1
 312  152  153 1
 313  152  321 1
 314  152  322 1
 315  153  154 1
 316  153  323 1
 317  153  324 1
 318  154  155 1
 319  154  325 1
 320  154  326 1
 321  155  156 1
 322  155  327 1
 323  155  328 1
 324  156  157 1
 325  156  329 1
 326  156  330 1
 327  157  158 1
 328  157  331 1
 329  157  332 1
 330  158  159 1
 331  158  333 1
 332  158  334 1
 333  159  160 1
 334  159  335 1
 335  159  336 1
 336  160  161 1
 337  160  337 1
 338  160  338 1
 339  161  162 1
 340  161  339 1
 341  161  340 1
 342  162  341 1
 343  162  342 1

#	End of record

