#	Name: ASD01940562
#	Creating user name:	WinNT
#	Creation time:	15. 06. 2019 20:12

#	Modifying user name:	WinNT
#	Modification time:	15. 06. 2019 20:12

#	Program:	/corina/corina34_cracker 3.40 0067  02.08.2006

@<TRIPOS>MOLECULE
ASD01940562
  71   74    0    0    0
SMALL
NO_CHARGES


@<TRIPOS>ATOM
   1 C1            -0.2420     1.1739    -0.3438 C.2     
   2 C2            -0.1644    -0.3029    -0.3494 C.ar    
   3 C3             1.0781    -0.9374    -0.3114 C.ar    
   4 C4             1.1515    -2.3226    -0.3167 C.ar    
   5 C5            -0.0092    -3.0817    -0.3602 C.ar    
   6 C6            -1.2542    -2.4538    -0.3987 C.ar    
   7 C7            -1.3319    -1.0626    -0.3868 C.ar    
   8 O8             0.7767     1.8359    -0.3061 O.2     
   9 N9            -1.4421     1.7858    -0.3860 N.am    
  10 C10           -1.5190     3.2488    -0.3805 C.3     
  11 C11           -2.9852     3.6826    -0.4340 C.3     
  12 O12           -3.6495     3.2646     0.7602 O.3     
  13 C13           -5.0320     3.6223     0.8118 C.3     
  14 C14           -5.6382     3.1273     2.1265 C.3     
  15 O15           -5.0286     3.8151     3.2208 O.3     
  16 C16           -5.5261     3.4248     4.5023 C.3     
  17 C17           -4.8066     4.2209     5.5928 C.3     
  18 O18           -5.1342     5.6061     5.4660 O.3     
  19 C19           -4.5105     6.4426     6.4423 C.3     
  20 C20           -2.4514    -3.2381    -0.4440 C.1     
  21 C21           -3.4329    -3.8812    -0.4812 C.1     
  22 N22            2.3983    -2.9554    -0.2786 N.pl3   
  23 C23            3.4870    -2.3797    -0.9126 C.ar    
  24 N24            4.6823    -2.9342    -0.7751 N.ar    
  25 C25            5.7453    -2.4068    -1.3703 C.ar    
  26 C26            5.5876    -1.2576    -2.1448 C.ar    
  27 C27            4.3241    -0.7102    -2.2629 C.ar    
  28 N28            3.3062    -1.2913    -1.6458 N.ar    
  29 O29            6.9662    -2.9765    -1.2270 O.3     
  30 C30            7.0823    -4.0320    -0.3783 C.ar    
  31 C31            7.4634    -3.8292     0.9282 C.ar    
  32 C32            7.5870    -4.8988     1.8101 C.ar    
  33 C33            7.3303    -6.1878     1.3968 C.ar    
  34 C34            6.9372    -6.4281     0.0635 C.ar    
  35 C35            6.6682    -7.7288    -0.3920 C.ar    
  36 C36            6.2913    -7.9257    -1.6853 C.ar    
  37 C37            6.1678    -6.8537    -2.5672 C.ar    
  38 C38            6.4206    -5.5796    -2.1602 C.ar    
  39 C39            6.8071    -5.3377    -0.8315 C.ar    
  40 N40            7.4590    -7.2510     2.2931 N.pl3   
  41 H41            1.9834    -0.3493    -0.2782 H       
  42 H42            0.0514    -4.1600    -0.3645 H       
  43 H43           -2.2948    -0.5741    -0.4118 H       
  44 H44           -2.2549     1.2576    -0.4202 H       
  45 H45           -1.0592     3.6333     0.5300 H       
  46 H46           -0.9913     3.6436    -1.2487 H       
  47 H47           -3.0401     4.7679    -0.5194 H       
  48 H48           -3.4681     3.2253    -1.2975 H       
  49 H49           -5.1294     4.7063     0.7522 H       
  50 H50           -5.5575     3.1637    -0.0259 H       
  51 H51           -6.7108     3.3210     2.1278 H       
  52 H52           -5.4622     2.0563     2.2272 H       
  53 H53           -6.5964     3.6246     4.5528 H       
  54 H54           -5.3479     2.3599     4.6523 H       
  55 H55           -5.1211     3.8614     6.5726 H       
  56 H56           -3.7296     4.0911     5.4867 H       
  57 H57           -3.4273     6.3589     6.3539 H       
  58 H58           -4.8095     7.4778     6.2782 H       
  59 H59           -4.8189     6.1291     7.4397 H       
  60 H60           -4.3107    -4.4563    -0.5144 H       
  61 H61            2.5005    -3.7976     0.1919 H       
  62 H62            6.4338    -0.8056    -2.6408 H       
  63 H63            4.1677     0.1793    -2.8553 H       
  64 H64            7.6697    -2.8270     1.2737 H       
  65 H65            7.8883    -4.7161     2.8311 H       
  66 H66            6.7601    -8.5691     0.2802 H       
  67 H67            6.0853    -8.9272    -2.0331 H       
  68 H68            5.8676    -7.0365    -3.5884 H       
  69 H69            6.3212    -4.7583    -2.8545 H       
  70 H70            7.7298    -7.0830     3.2092 H       
  71 H71            7.2777    -8.1575     1.9994 H       
@<TRIPOS>BOND
   1    1    2 1
   2    1    8 2
   3    1    9 am
   4    2    3 ar
   5    2    7 ar
   6    3    4 ar
   7    3   41 1
   8    4    5 ar
   9    4   22 1
  10    5    6 ar
  11    5   42 1
  12    6    7 ar
  13    6   20 1
  14    7   43 1
  15    9   10 1
  16    9   44 1
  17   10   11 1
  18   10   45 1
  19   10   46 1
  20   11   12 1
  21   11   47 1
  22   11   48 1
  23   12   13 1
  24   13   14 1
  25   13   49 1
  26   13   50 1
  27   14   15 1
  28   14   51 1
  29   14   52 1
  30   15   16 1
  31   16   17 1
  32   16   53 1
  33   16   54 1
  34   17   18 1
  35   17   55 1
  36   17   56 1
  37   18   19 1
  38   19   57 1
  39   19   58 1
  40   19   59 1
  41   20   21 3
  42   21   60 1
  43   22   23 1
  44   22   61 1
  45   23   24 ar
  46   23   28 ar
  47   24   25 ar
  48   25   26 ar
  49   25   29 1
  50   26   27 ar
  51   26   62 1
  52   27   28 ar
  53   27   63 1
  54   29   30 1
  55   30   31 ar
  56   30   39 ar
  57   31   32 ar
  58   31   64 1
  59   32   33 ar
  60   32   65 1
  61   33   34 ar
  62   33   40 1
  63   34   35 ar
  64   34   39 ar
  65   35   36 ar
  66   35   66 1
  67   36   37 ar
  68   36   67 1
  69   37   38 ar
  70   37   68 1
  71   38   39 ar
  72   38   69 1
  73   40   70 1
  74   40   71 1

#	End of record

