#	Name: ASD07932000
#	Creating user name:	WinNT
#	Creation time:	15. 06. 2019 21:14

#	Modifying user name:	WinNT
#	Modification time:	15. 06. 2019 21:14

#	Program:	/corina/corina34_cracker 3.40 0067  02.08.2006

@<TRIPOS>MOLECULE
ASD07932000
  48   51    0    0    0
SMALL
NO_CHARGES


@<TRIPOS>ATOM
   1 N1            -0.0176     1.4452     0.0100 N.2     
   2 C2             0.0021    -0.0041     0.0020 C.3     
   3 C3             1.3179    -0.5601     0.5550 C.3     
   4 S4             2.6817     0.3218    -0.2738 S.o2    
   5 N5             2.2934     1.9116     0.0405 N.am    
   6 C6             0.9644     2.2633     0.0050 C.2     
   7 C7             3.3314     2.8998     0.3444 C.3     
   8 N8             0.6677     3.6050    -0.0400 N.pl3   
   9 C9            -1.1387    -0.5149     0.8439 C.ar    
  10 C10           -0.1822    -0.4968    -1.4347 C.3     
  11 C11           -1.9941     0.3792     1.4622 C.ar    
  12 O12            3.9115     0.1084     0.4054 O.2     
  13 O13            2.5830     0.1974    -1.6859 O.2     
  14 C14           -1.3311    -1.8755     0.9916 C.ar    
  15 C15           -2.3879    -2.3481     1.7709 C.ar    
  16 C16           -3.2445    -1.4430     2.3967 C.ar    
  17 C17           -3.0444    -0.0820     2.2372 C.ar    
  18 F18           -0.4976    -2.7468     0.3821 F       
  19 F19           -4.2698    -1.8927     3.1527 F       
  20 F20           -3.8729     0.7970     2.8424 F       
  21 C21           -2.5995    -3.8077     1.9326 C.ar    
  22 C22           -2.4554    -4.3924     3.1807 C.ar    
  23 C23           -2.6571    -5.7685     3.3220 C.ar    
  24 C24           -3.0035    -6.5438     2.1982 C.ar    
  25 C25           -3.1430    -5.9325     0.9533 C.ar    
  26 C26           -2.9499    -4.5890     0.8245 C.ar    
  27 C27           -2.5919    -6.6902     4.4522 C.2     
  28 N28           -2.8757    -7.8818     4.0102 N.2     
  29 N29           -3.1338    -7.8362     2.6365 N.pl3   
  30 C30           -3.4870    -8.9857     1.7997 C.3     
  31 H31            1.3678    -0.3907     1.6306 H       
  32 H32            1.3858    -1.6274     0.3444 H       
  33 H33            3.6737     3.3634    -0.5808 H       
  34 H34            2.9226     3.6648     1.0046 H       
  35 H35            4.1701     2.4064     0.8356 H       
  36 H36            1.3832     4.2599    -0.0456 H       
  37 H37           -0.2570     3.8966    -0.0660 H       
  38 H38            0.6274    -0.1149    -2.0565 H       
  39 H39           -0.1686    -1.5867    -1.4496 H       
  40 H40           -1.1368    -0.1401    -1.8215 H       
  41 H41           -1.8417     1.4414     1.3402 H       
  42 H42           -2.1892    -3.7902     4.0368 H       
  43 H43           -3.4082    -6.5239     0.0894 H       
  44 H44           -3.0604    -4.1238    -0.1439 H       
  45 H45           -2.3507    -6.4303     5.4724 H       
  46 H46           -4.5703    -9.1053     1.7852 H       
  47 H47           -3.1260    -8.8207     0.7846 H       
  48 H48           -3.0275    -9.8863     2.2069 H       
@<TRIPOS>BOND
   1    1    2 1
   2    1    6 2
   3    2    3 1
   4    2    9 1
   5    2   10 1
   6    3    4 1
   7    3   31 1
   8    3   32 1
   9    4    5 am
  10    4   12 2
  11    4   13 2
  12    5    6 1
  13    5    7 1
  14    6    8 1
  15    7   33 1
  16    7   34 1
  17    7   35 1
  18    8   36 1
  19    8   37 1
  20    9   14 ar
  21    9   11 ar
  22   10   38 1
  23   10   39 1
  24   10   40 1
  25   11   17 ar
  26   11   41 1
  27   14   15 ar
  28   14   18 1
  29   15   16 ar
  30   15   21 1
  31   16   17 ar
  32   16   19 1
  33   17   20 1
  34   21   22 ar
  35   21   26 ar
  36   22   23 ar
  37   22   42 1
  38   23   24 ar
  39   23   27 1
  40   24   25 ar
  41   24   29 1
  42   25   26 ar
  43   25   43 1
  44   26   44 1
  45   27   28 2
  46   27   45 1
  47   28   29 1
  48   29   30 1
  49   30   46 1
  50   30   47 1
  51   30   48 1

#	End of record

