#	Name: ASD09530024
#	Creating user name:	WinNT
#	Creation time:	15. 06. 2019 21:22

#	Modifying user name:	WinNT
#	Modification time:	15. 06. 2019 21:22

#	Program:	/corina/corina34_cracker 3.40 0067  02.08.2006

@<TRIPOS>MOLECULE
ASD09530024
  49   51    0    0    0
SMALL
NO_CHARGES


@<TRIPOS>ATOM
   1 C1            -0.0168     1.3894     0.0097 C.ar    
   2 C2             0.0021    -0.0041     0.0020 C.ar    
   3 C3             1.2212    -0.6792    -0.0132 C.ar    
   4 C4             2.4023     0.0348    -0.0207 C.ar    
   5 C5             2.3775     1.4178    -0.0126 C.ar    
   6 C6             1.1704     2.0931     0.0021 C.ar    
   7 C7            -1.2707    -0.7659     0.0106 C.ar    
   8 C8             3.6706     2.1918    -0.0203 C.3     
   9 C9             4.0883     2.4579    -1.4436 C.2     
  10 N10            5.2229     3.1398    -1.6966 N.am    
  11 O11            3.4034     2.0584    -2.3613 O.2     
  12 C12            5.6290     3.3985    -3.0802 C.3     
  13 C13            6.5056     4.6235    -3.1258 C.ar    
  14 N14            7.1840     4.9781    -2.0523 N.ar    
  15 C15            7.9637     6.0412    -2.0434 C.ar    
  16 C16            8.0973     6.8305    -3.1762 C.ar    
  17 C17            7.3955     6.4852    -4.3269 C.ar    
  18 C18            6.5920     5.3572    -4.2944 C.ar    
  19 O19            8.9020     7.9257    -3.1621 O.3     
  20 C20            9.5873     8.2117    -1.9412 C.3     
  21 C21            6.4062     2.1949    -3.6171 C.3     
  22 N22           -2.4333    -0.1218     0.0256 N.ar    
  23 C23           -3.5638    -0.8040     0.0332 C.ar    
  24 C24           -3.5402    -2.1877     0.0260 C.ar    
  25 N25           -2.3866    -2.8337     0.0111 N.ar    
  26 C26           -1.2515    -2.1607    -0.0029 C.ar    
  27 C27           10.4378     9.4713    -2.1166 C.3     
  28 F28            9.6112    10.5493    -2.4509 F       
  29 F29           11.1087     9.7512    -0.9213 F       
  30 F30           11.3712     9.2651    -3.1381 F       
  31 H31           -0.9588     1.9177     0.0170 H       
  32 H32            1.2417    -1.7589    -0.0189 H       
  33 H33            3.3476    -0.4873    -0.0325 H       
  34 H34            1.1569     3.1730     0.0084 H       
  35 H35            3.5301     3.1391     0.5003 H       
  36 H36            4.4442     1.6118     0.4830 H       
  37 H37            5.7707     3.4593    -0.9626 H       
  38 H38            4.7434     3.5624    -3.6942 H       
  39 H39            8.5037     6.3004    -1.1447 H       
  40 H40            7.4786     7.0796    -5.2248 H       
  41 H41            6.0329     5.0593    -5.1691 H       
  42 H42            8.8600     8.3723    -1.1453 H       
  43 H43           10.2313     7.3717    -1.6807 H       
  44 H44            5.7722     1.3089    -3.5841 H       
  45 H45            6.7083     2.3874    -4.6466 H       
  46 H46            7.2918     2.0310    -3.0031 H       
  47 H47           -4.5087    -0.2811     0.0454 H       
  48 H48           -4.4672    -2.7418     0.0330 H       
  49 H49           -0.3095    -2.6888    -0.0151 H       
@<TRIPOS>BOND
   1    1    2 ar
   2    1    6 ar
   3    1   31 1
   4    2    3 ar
   5    2    7 1
   6    3    4 ar
   7    3   32 1
   8    4    5 ar
   9    4   33 1
  10    5    6 ar
  11    5    8 1
  12    6   34 1
  13    7   22 ar
  14    7   26 ar
  15    8    9 1
  16    8   35 1
  17    8   36 1
  18    9   10 am
  19    9   11 2
  20   10   12 1
  21   10   37 1
  22   12   13 1
  23   12   21 1
  24   12   38 1
  25   13   14 ar
  26   13   18 ar
  27   14   15 ar
  28   15   16 ar
  29   15   39 1
  30   16   17 ar
  31   16   19 1
  32   17   18 ar
  33   17   40 1
  34   18   41 1
  35   19   20 1
  36   20   27 1
  37   20   42 1
  38   20   43 1
  39   21   44 1
  40   21   45 1
  41   21   46 1
  42   22   23 ar
  43   23   24 ar
  44   23   47 1
  45   24   25 ar
  46   24   48 1
  47   25   26 ar
  48   26   49 1
  49   27   28 1
  50   27   29 1
  51   27   30 1

#	End of record

