#	Name: ASD01810341
#	Creating user name:	WinNT
#	Creation time:	15. 06. 2019 19:24

#	Modifying user name:	WinNT
#	Modification time:	15. 06. 2019 19:24

#	Program:	/corina/corina34_cracker 3.40 0067  02.08.2006

@<TRIPOS>MOLECULE
ASD01810341
  23   24    0    0    0
SMALL
NO_CHARGES


@<TRIPOS>ATOM
   1 N1            -0.0162     1.3410     0.0094 N.am    
   2 C2             0.0021    -0.0041     0.0020 C.2     
   3 C3             1.4120    -0.4523    -0.0139 C.2     
   4 C4             2.1716     0.6560    -0.0152 C.2     
   5 C5             1.2448     1.8093    -0.0001 C.2     
   6 O6            -0.9729    -0.7274     0.0078 O.2     
   7 O7             1.5677     2.9796     0.0031 O.2     
   8 C8            -1.1723     2.1334     0.0194 C.ar    
   9 C9            -1.0668     3.5176     0.0264 C.ar    
  10 C10           -2.2079     4.2958     0.0358 C.ar    
  11 C11           -3.4545     3.6974     0.0386 C.ar    
  12 C12           -3.5628     2.3189     0.0317 C.ar    
  13 C13           -2.4253     1.5355     0.0165 C.ar    
  14 C14           -4.6975     4.5494     0.0499 C.3     
  15 Br15          -5.2475     4.9305    -1.7988 Br      
  16 H16            1.7631    -1.4736    -0.0222 H       
  17 H17            3.2508     0.6971    -0.0245 H       
  18 H18           -0.0934     3.9855     0.0249 H       
  19 H19           -2.1264     5.3727     0.0412 H       
  20 H20           -4.5378     1.8544     0.0343 H       
  21 H21           -2.5106     0.4589     0.0069 H       
  22 H22           -5.4978     4.0177     0.5647 H       
  23 H23           -4.4915     5.4859     0.5681 H       
@<TRIPOS>BOND
   1    1    2 am
   2    1    5 am
   3    1    8 1
   4    2    3 1
   5    2    6 2
   6    3    4 2
   7    3   16 1
   8    4    5 1
   9    4   17 1
  10    5    7 2
  11    8    9 ar
  12    8   13 ar
  13    9   10 ar
  14    9   18 1
  15   10   11 ar
  16   10   19 1
  17   11   12 ar
  18   11   14 1
  19   12   13 ar
  20   12   20 1
  21   13   21 1
  22   14   15 1
  23   14   22 1
  24   14   23 1

#	End of record

