#	Name: ASD03330401
#	Creating user name:	WinNT
#	Creation time:	15. 06. 2019 20:37

#	Modifying user name:	WinNT
#	Modification time:	15. 06. 2019 20:37

#	Program:	/corina/corina34_cracker 3.40 0067  02.08.2006

@<TRIPOS>MOLECULE
ASD03330401
  62   64    0    0    0
SMALL
NO_CHARGES


@<TRIPOS>ATOM
   1 C1             0.0419    -0.2703     1.0735 C.3     
   2 N2             0.0729    -1.6607     0.5949 N.am    
   3 C3             0.6674    -1.9243    -0.7295 C.3     
   4 C4             1.9259    -1.0965    -0.8191 C.2     
   5 N5             2.2668    -0.1317     0.0719 N.pl3   
   6 C6             1.4776     0.2369     1.2495 C.3     
   7 C7             2.9071    -1.1508    -1.7555 C.2     
   8 N8             3.8319    -0.2183    -1.4337 N.2     
   9 C9             3.4529     0.3990    -0.3383 C.2     
  10 C10            4.1902     1.4895     0.3373 C.ar    
  11 C11            5.2172     2.1584    -0.3292 C.ar    
  12 C12            2.9560    -2.0617    -2.9129 C.2     
  13 O13            2.0583    -2.8617    -3.0954 O.2     
  14 C14            4.0440    -2.9137    -4.9197 C.3     
  15 N15            3.9954    -2.0081    -3.7691 N.am    
  16 C16           -0.4262    -2.6639     1.3438 C.2     
  17 O17           -0.3912    -3.8039     0.9314 O.2     
  18 C18            5.9007     3.1747     0.3061 C.ar    
  19 C19            5.5696     3.5308     1.6012 C.ar    
  20 C20            4.5522     2.8714     2.2676 C.ar    
  21 C21            3.8576     1.8569     1.6414 C.ar    
  22 C22           -1.0278    -2.3691     2.6937 C.3     
  23 C23           -1.5158    -3.6721     3.3301 C.3     
  24 C24            3.7707    -0.9030    -6.3773 C.3     
  25 C25            3.2480    -2.3095    -6.0783 C.3     
  26 C26            3.4088    -3.1881    -7.3204 C.3     
  27 C27            5.4767    -3.1110    -5.3435 C.2     
  28 N28            5.8372    -4.2319    -5.9992 N.am    
  29 C29            1.7687    -2.2331    -5.6955 C.3     
  30 O30            6.3052    -2.2610    -5.0946 O.2     
  31 C31            7.2476    -4.4767    -6.3109 C.3     
  32 H32           -0.4777     0.3534     0.3461 H       
  33 H33           -0.4794    -0.2261     2.0297 H       
  34 H34            0.9106    -2.9826    -0.8242 H       
  35 H35           -0.0285    -1.6296    -1.5150 H       
  36 H36            1.4699     1.3215     1.3577 H       
  37 H37            1.9171    -0.2154     2.1385 H       
  38 H38            5.4769     1.8810    -1.3402 H       
  39 H39            3.6111    -3.8752    -4.6439 H       
  40 H40            4.7113    -1.3700    -3.6236 H       
  41 H41            6.6962     3.6930    -0.2087 H       
  42 H42            6.1078     4.3268     2.0944 H       
  43 H43            4.2984     3.1540     3.2786 H       
  44 H44            3.0636     1.3428     2.1626 H       
  45 H45           -0.2747    -1.9113     3.3350 H       
  46 H46           -1.8685    -1.6854     2.5753 H       
  47 H47           -0.6752    -4.3557     3.4485 H       
  48 H48           -1.9510    -3.4588     4.3065 H       
  49 H49           -2.2690    -4.1299     2.6888 H       
  50 H50            4.8246    -0.9574    -6.6500 H       
  51 H51            3.2036    -0.4725    -7.2027 H       
  52 H52            3.6562    -0.2770    -5.4924 H       
  53 H53            4.4661    -3.2726    -7.5714 H       
  54 H54            3.0028    -4.1795    -7.1193 H       
  55 H55            2.8719    -2.7383    -8.1556 H       
  56 H56            5.1629    -4.8767    -6.2646 H       
  57 H57            1.2016    -1.8027    -6.5209 H       
  58 H58            1.3963    -3.2351    -5.4824 H       
  59 H59            1.6542    -1.6071    -4.8106 H       
  60 H60            7.8226    -4.5163    -5.3857 H       
  61 H61            7.3436    -5.4253    -6.8392 H       
  62 H62            7.6259    -3.6707    -6.9396 H       
@<TRIPOS>BOND
   1    1    2 1
   2    1    6 1
   3    1   32 1
   4    1   33 1
   5    2    3 1
   6    2   16 am
   7    3    4 1
   8    3   34 1
   9    3   35 1
  10    4    5 1
  11    4    7 2
  12    5    6 1
  13    5    9 1
  14    6   36 1
  15    6   37 1
  16    7    8 1
  17    7   12 1
  18    8    9 2
  19    9   10 1
  20   10   11 ar
  21   10   21 ar
  22   11   18 ar
  23   11   38 1
  24   12   13 2
  25   12   15 am
  26   14   15 1
  27   14   27 1
  28   14   25 1
  29   14   39 1
  30   15   40 1
  31   16   17 2
  32   16   22 1
  33   18   19 ar
  34   18   41 1
  35   19   20 ar
  36   19   42 1
  37   20   21 ar
  38   20   43 1
  39   21   44 1
  40   22   23 1
  41   22   45 1
  42   22   46 1
  43   23   47 1
  44   23   48 1
  45   23   49 1
  46   24   25 1
  47   24   50 1
  48   24   51 1
  49   24   52 1
  50   25   29 1
  51   25   26 1
  52   26   53 1
  53   26   54 1
  54   26   55 1
  55   27   28 am
  56   27   30 2
  57   28   31 1
  58   28   56 1
  59   29   57 1
  60   29   58 1
  61   29   59 1
  62   31   60 1
  63   31   61 1
  64   31   62 1

#	End of record

