#	Name: ASD01180059
#	Creating user name:	WinNT
#	Creation time:	15. 06. 2019 19:06

#	Modifying user name:	WinNT
#	Modification time:	15. 06. 2019 19:06

#	Program:	/corina/corina34_cracker 3.40 0067  02.08.2006

@<TRIPOS>MOLECULE
ASD01180059
  58   59    0    0    0
SMALL
NO_CHARGES


@<TRIPOS>ATOM
   1 C1            -0.0180     1.4730     0.0101 C.2     
   2 C2             0.0021    -0.0041     0.0020 C.ar    
   3 C3             1.2188    -0.6888    -0.0133 C.ar    
   4 C4             1.2303    -2.0682    -0.0203 C.ar    
   5 C5             0.0396    -2.7731    -0.0127 C.ar    
   6 C6            -1.1697    -2.1009     0.0020 C.ar    
   7 C7            -1.1956    -0.7217     0.0154 C.ar    
   8 O8             1.0256     2.0946     0.0035 O.2     
   9 O9            -1.1936     2.1307     0.0193 O.3     
  10 C10            0.0601    -4.2800    -0.0210 C.3     
  11 C11           -0.1699    -4.8009     1.3991 C.3     
  12 C12           -0.0255    -6.3241     1.4132 C.3     
  13 C13            1.4170    -6.7028     1.0718 C.3     
  14 N14           -0.9997    -4.7779    -0.9014 N.pl3   
  15 N15            0.1836    -6.7599    -1.2374 N.ar    
  16 C16           -0.8848    -6.0307    -1.4850 C.ar    
  17 C17           -1.9093    -6.4915    -2.3249 C.ar    
  18 C18           -1.8104    -7.7200    -2.9047 C.ar    
  19 C19           -0.6639    -8.4958    -2.6355 C.ar    
  20 C20           -0.4976    -9.7692    -3.2004 C.ar    
  21 C21            0.6236   -10.4901    -2.9187 C.ar    
  22 C22            1.6077    -9.9795    -2.0762 C.ar    
  23 C23            1.4781    -8.7473    -1.5112 C.ar    
  24 C24            0.3358    -7.9742    -1.7786 C.ar    
  25 C25           -3.1175    -5.6291    -2.5848 C.3     
  26 C26           -0.3772    -6.8568     2.8037 C.3     
  27 H27            2.1488    -0.1398    -0.0199 H       
  28 H28            2.1707    -2.5992    -0.0321 H       
  29 H29           -2.0953    -2.6572     0.0071 H       
  30 H30           -2.1401    -0.1983     0.0318 H       
  31 H31           -1.1561     3.0969     0.0244 H       
  32 H32            1.0272    -4.6283    -0.3836 H       
  33 H33            0.5660    -4.3600     2.0715 H       
  34 H34           -1.1725    -4.5280     1.7284 H       
  35 H35           -0.6998    -6.7598     0.6759 H       
  36 H36            1.5199    -7.7879     1.0818 H       
  37 H37            1.6676    -6.3232     0.0812 H       
  38 H38            2.0913    -6.2671     1.8091 H       
  39 H39           -1.7818    -4.2314    -1.0761 H       
  40 H40           -2.5901    -8.0905    -3.5537 H       
  41 H41           -1.2544   -10.1760    -3.8547 H       
  42 H42            0.7506   -11.4702    -3.3541 H       
  43 H43            2.4875   -10.5702    -1.8673 H       
  44 H44            2.2503    -8.3659    -0.8597 H       
  45 H45           -2.9347    -5.0008    -3.4566 H       
  46 H46           -3.9840    -6.2640    -2.7699 H       
  47 H47           -3.3077    -4.9988    -1.7161 H       
  48 H48           -1.4049    -6.5870     3.0469 H       
  49 H49           -0.2743    -7.9419     2.8137 H       
  50 H50            0.2971    -6.4211     3.5410 H       
  51 C51            8.6589    10.0852     9.6878 C.2     
  52 C52            8.6793     8.5783     9.6795 C.3     
  53 O53            9.6969    10.7035     9.6812 O.2     
  54 O54            7.4875    10.7404     9.6969 O.3     
  55 F55           10.0045     8.1300     9.6644 F       
  56 F56            8.0372     8.0969    10.8254 F       
  57 F57            8.0154     8.1092     8.5410 F       
  58 H58            7.5250    11.7067     9.7020 H       
@<TRIPOS>BOND
   1    1    2 1
   2    1    8 2
   3    1    9 1
   4    2    3 ar
   5    2    7 ar
   6    3    4 ar
   7    3   27 1
   8    4    5 ar
   9    4   28 1
  10    5    6 ar
  11    5   10 1
  12    6    7 ar
  13    6   29 1
  14    7   30 1
  15    9   31 1
  16   10   11 1
  17   10   14 1
  18   10   32 1
  19   11   12 1
  20   11   33 1
  21   11   34 1
  22   12   13 1
  23   12   26 1
  24   12   35 1
  25   13   36 1
  26   13   37 1
  27   13   38 1
  28   14   16 1
  29   14   39 1
  30   15   16 ar
  31   15   24 ar
  32   16   17 ar
  33   17   18 ar
  34   17   25 1
  35   18   19 ar
  36   18   40 1
  37   19   20 ar
  38   19   24 ar
  39   20   21 ar
  40   20   41 1
  41   21   22 ar
  42   21   42 1
  43   22   23 ar
  44   22   43 1
  45   23   24 ar
  46   23   44 1
  47   25   45 1
  48   25   46 1
  49   25   47 1
  50   26   48 1
  51   26   49 1
  52   26   50 1
  53   51   52 1
  54   51   53 2
  55   51   54 1
  56   52   55 1
  57   52   56 1
  58   52   57 1
  59   54   58 1

#	End of record

