#	Name: ASD06620002
#	Creating user name:	WinNT
#	Creation time:	15. 06. 2019 21:07

#	Modifying user name:	WinNT
#	Modification time:	15. 06. 2019 21:07

#	Program:	/corina/corina34_cracker 3.40 0067  02.08.2006

@<TRIPOS>MOLECULE
ASD06620002
  29   28    0    0    0
SMALL
NO_CHARGES


@<TRIPOS>ATOM
   1 C1            -0.0168     1.3861     0.0097 C.ar    
   2 C2             0.0021    -0.0041     0.0020 C.ar    
   3 C3             1.2213    -0.6607    -0.0131 C.ar    
   4 C4             2.3840     0.1007    -0.0201 C.ar    
   5 C5             2.2900     1.4776    -0.0118 C.ar    
   6 N6             1.1139     2.0759     0.0026 N.ar    
   7 C7             1.0574     3.5398     0.0109 C.3     
   8 C8             0.9278     4.0294     1.4303 C.2     
   9 C9             0.8502     5.4914     1.7102 C.2     
  10 O10            0.8913     6.2869     0.7958 O.2     
  11 O11            0.8869     3.2371     2.3410 O.2     
  12 O12            0.7345     5.9287     2.9779 O.3     
  13 C13            0.6642     7.3654     3.1758 C.3     
  14 C14            0.5359     7.6687     4.6699 C.3     
  15 Cl15           1.2957    -2.3951    -0.0226 Cl      
  16 N16           -1.2335     2.0584     0.0190 N.pl3   
  17 H17           -0.9213    -0.5642     0.0082 H       
  18 H18            3.3510    -0.3801    -0.0316 H       
  19 H19            3.1909     2.0733    -0.0169 H       
  20 H20            1.9699     3.9411    -0.4299 H       
  21 H21            0.1967     3.8735    -0.5685 H       
  22 H22            1.5702     7.8304     2.7871 H       
  23 H23           -0.2031     7.7628     2.6485 H       
  24 H24            1.4032     7.2713     5.1971 H       
  25 H25            0.4831     8.7473     4.8184 H       
  26 H26           -0.3701     7.2037     5.0585 H       
  27 H27           -2.0643     1.5576     0.0202 H       
  28 H28           -1.2518     3.0282     0.0244 H       
  29 Br29           8.3510    13.7473    10.1971 Br      
@<TRIPOS>BOND
   1    1    2 ar
   2    1    6 ar
   3    1   16 1
   4    2    3 ar
   5    2   17 1
   6    3    4 ar
   7    3   15 1
   8    4    5 ar
   9    4   18 1
  10    5    6 ar
  11    5   19 1
  12    6    7 1
  13    7    8 1
  14    7   20 1
  15    7   21 1
  16    8    9 1
  17    8   11 2
  18    9   10 2
  19    9   12 1
  20   12   13 1
  21   13   14 1
  22   13   22 1
  23   13   23 1
  24   14   24 1
  25   14   25 1
  26   14   26 1
  27   16   27 1
  28   16   28 1

#	End of record

