#	Name: ASD03090863
#	Creating user name:	WinNT
#	Creation time:	15. 06. 2019 20:29

#	Modifying user name:	WinNT
#	Modification time:	15. 06. 2019 20:29

#	Program:	/corina/corina34_cracker 3.40 0067  02.08.2006

@<TRIPOS>MOLECULE
ASD03090863
  48   50    0    0    0
SMALL
NO_CHARGES


@<TRIPOS>ATOM
   1 N1            -0.0149     1.3421     0.1048 N.am    
   2 C2             0.0030    -0.0051     0.0719 C.2     
   3 O3            -1.0442    -0.6288     0.0748 O.2     
   4 N4             1.1687    -0.6570     0.0361 N.2     
   5 C5             1.2438     2.0918     0.1013 C.3     
   6 C6             1.6571     2.3876    -1.3418 C.3     
   7 C7             2.9716     3.1705    -1.3454 C.3     
   8 C8            -1.2932     2.0571     0.1380 C.3     
   9 C9            -1.7203     2.2710     1.5916 C.3     
  10 C10           -3.0553     3.0177     1.6262 C.3     
  11 S11           -0.1729    -3.0447     0.0008 S.3     
  12 C12            1.1864    -1.9875     0.0036 C.2     
  13 N13            2.2793    -2.7909    -0.0347 N.pl3   
  14 C14            2.0560    -4.1338    -0.0638 C.2     
  15 C15            0.7906    -4.5309    -0.0520 C.2     
  16 C16            0.2795    -5.9484    -0.0785 C.3     
  17 O17            7.4851    -0.9543    -0.0528 O.3     
  18 C18            8.1209    -2.2099    -0.3569 C.3     
  19 O19            7.1778    -3.1928     0.1096 O.3     
  20 C20            5.9555    -2.5894     0.0355 C.ar    
  21 C21            6.1440    -1.2125    -0.0645 C.ar    
  22 C22            4.6733    -3.1114     0.0455 C.ar    
  23 C23            3.5781    -2.2627    -0.0443 C.ar    
  24 C24            3.7690    -0.8915    -0.1440 C.ar    
  25 C25            5.0485    -0.3694    -0.1545 C.ar    
  26 F26            8.3226    -2.3376    -1.7353 F       
  27 F27            9.3332    -2.3264     0.3315 F       
  28 H28            1.1096     3.0296     0.6404 H       
  29 H29            2.0199     1.5009     0.5877 H       
  30 H30            1.7913     1.4498    -1.8808 H       
  31 H31            0.8810     2.9785    -1.8282 H       
  32 H32            2.8375     4.1083    -0.8064 H       
  33 H33            3.7478     2.5797    -0.8590 H       
  34 H34            3.2661     3.3813    -2.3735 H       
  35 H35           -1.1819     3.0234    -0.3539 H       
  36 H36           -2.0512     1.4704    -0.3808 H       
  37 H37           -1.8316     1.3047     2.0835 H       
  38 H38           -0.9623     2.8577     2.1104 H       
  39 H39           -2.9440     3.9839     1.1343 H       
  40 H40           -3.8133     2.4309     1.1074 H       
  41 H41           -3.3596     3.1700     2.6618 H       
  42 H42            2.8708    -4.8420    -0.0950 H       
  43 H43           -0.8103    -5.9421    -0.0606 H       
  44 H44            0.6251    -6.4423    -0.9866 H       
  45 H45            0.6541    -6.4860     0.7926 H       
  46 H46            4.5250    -4.1784     0.1226 H       
  47 H47            2.9166    -0.2319    -0.2138 H       
  48 H48            5.1947     0.6979    -0.2316 H       
@<TRIPOS>BOND
   1    1    2 am
   2    1    5 1
   3    1    8 1
   4    2    3 2
   5    2    4 1
   6    4   12 2
   7    5    6 1
   8    5   28 1
   9    5   29 1
  10    6    7 1
  11    6   30 1
  12    6   31 1
  13    7   32 1
  14    7   33 1
  15    7   34 1
  16    8    9 1
  17    8   35 1
  18    8   36 1
  19    9   10 1
  20    9   37 1
  21    9   38 1
  22   10   39 1
  23   10   40 1
  24   10   41 1
  25   11   12 1
  26   11   15 1
  27   12   13 1
  28   13   14 1
  29   13   23 1
  30   14   15 2
  31   14   42 1
  32   15   16 1
  33   16   43 1
  34   16   44 1
  35   16   45 1
  36   17   18 1
  37   17   21 1
  38   18   19 1
  39   18   26 1
  40   18   27 1
  41   19   20 1
  42   20   21 ar
  43   20   22 ar
  44   21   25 ar
  45   22   23 ar
  46   22   46 1
  47   23   24 ar
  48   24   25 ar
  49   24   47 1
  50   25   48 1

#	End of record

