#	Name: ASD03092141
#	Creating user name:	WinNT
#	Creation time:	15. 06. 2019 20:32

#	Modifying user name:	WinNT
#	Modification time:	15. 06. 2019 20:32

#	Program:	/corina/corina34_cracker 3.40 0067  02.08.2006

@<TRIPOS>MOLECULE
ASD03092141
  45   47    0    0    0
SMALL
NO_CHARGES


@<TRIPOS>ATOM
   1 N1            -0.2184     1.4433    -0.4281 N.pl3   
   2 C2            -0.1608     0.0824    -0.4842 C.2     
   3 C3            -1.4051    -0.3927    -0.1823 C.2     
   4 C4            -2.2359     0.7080     0.0624 C.2     
   5 N5            -1.5259     1.8037    -0.0784 N.2     
   6 N6            -3.5921     0.6498     0.4054 N.pl3   
   7 C7            -4.3392     1.8276     0.5050 C.ar    
   8 C8            -4.0105     2.9275    -0.2763 C.ar    
   9 C9            -4.7512     4.0913    -0.1758 C.ar    
  10 C10           -5.8207     4.1589     0.7043 C.ar    
  11 C11           -5.4148     1.8968     1.3815 C.ar    
  12 C12            1.0310    -0.7307    -0.8124 C.ar    
  13 C13            0.8917     2.3650    -0.6823 C.3     
  14 C14            2.0932    -0.1862    -1.5460 C.ar    
  15 C15            3.1860    -0.9752    -1.8318 C.ar    
  16 N16            3.2434    -2.2300    -1.4257 N.ar    
  17 C17            2.2632    -2.7871    -0.7298 C.ar    
  18 C18            1.1294    -2.0596    -0.3941 C.ar    
  19 C19           -6.1486     3.0626     1.4833 C.ar    
  20 F20           -4.4324     5.1625    -0.9349 F       
  21 F21           -6.5432     5.2963     0.8020 F       
  22 C22            0.8296     2.8507    -2.1318 C.3     
  23 N23            2.3736    -4.1133    -0.3267 N.pl3   
  24 C24            1.2945    -4.7372     0.4431 C.3     
  25 C25            1.6646    -6.1883     0.7564 C.3     
  26 O26            0.7926     3.4847     0.2000 O.3     
  27 H27           -1.6967    -1.4317    -0.1404 H       
  28 H28           -4.0133    -0.2075     0.5740 H       
  29 H29           -3.1773     2.8744    -0.9613 H       
  30 H30           -5.6744     1.0407     1.9866 H       
  31 H31            1.8374     1.8505    -0.5116 H       
  32 H32            2.0558     0.8391    -1.8834 H       
  33 H33            4.0078    -0.5610    -2.3970 H       
  34 H34            0.3322    -2.5167     0.1732 H       
  35 H35           -6.9817     3.1175     2.1684 H       
  36 H36           -0.1161     3.3651    -2.3024 H       
  37 H37            1.6555     3.5364    -2.3209 H       
  38 H38            0.9052     1.9965    -2.8047 H       
  39 H39            3.1651    -4.6254    -0.5552 H       
  40 H40            1.1494    -4.1900     1.3746 H       
  41 H41            0.3731    -4.7147    -0.1389 H       
  42 H42            1.8097    -6.7355    -0.1751 H       
  43 H43            2.5859    -6.2108     1.3383 H       
  44 H44            0.8617    -6.6525     1.3291 H       
  45 H45            1.4970     4.1376     0.0874 H       
@<TRIPOS>BOND
   1    1    2 1
   2    1   13 1
   3    1    5 1
   4    2    3 2
   5    2   12 1
   6    3    4 1
   7    3   27 1
   8    4    5 2
   9    4    6 1
  10    6    7 1
  11    6   28 1
  12    7    8 ar
  13    7   11 ar
  14    8    9 ar
  15    8   29 1
  16    9   10 ar
  17    9   20 1
  18   10   19 ar
  19   10   21 1
  20   11   19 ar
  21   11   30 1
  22   12   14 ar
  23   12   18 ar
  24   13   22 1
  25   13   26 1
  26   13   31 1
  27   14   15 ar
  28   14   32 1
  29   15   16 ar
  30   15   33 1
  31   16   17 ar
  32   17   18 ar
  33   17   23 1
  34   18   34 1
  35   19   35 1
  36   22   36 1
  37   22   37 1
  38   22   38 1
  39   23   24 1
  40   23   39 1
  41   24   25 1
  42   24   40 1
  43   24   41 1
  44   25   42 1
  45   25   43 1
  46   25   44 1
  47   26   45 1

#	End of record

