#	Name: ASD01910035
#	Creating user name:	WinNT
#	Creation time:	15. 06. 2019 19:55

#	Modifying user name:	WinNT
#	Modification time:	15. 06. 2019 19:55

#	Program:	/corina/corina34_cracker 3.40 0067  02.08.2006

@<TRIPOS>MOLECULE
ASD01910035
  46   49    0    0    0
SMALL
NO_CHARGES


@<TRIPOS>ATOM
   1 C1            -0.0167     1.3769     0.0096 C.ar    
   2 C2             0.0021    -0.0041     0.0020 C.ar    
   3 C3             1.2080    -0.6806    -0.0131 C.ar    
   4 C4             2.3987     0.0227    -0.0207 C.ar    
   5 C5             2.3866     1.4038    -0.0127 C.ar    
   6 C6             1.1772     2.0861     0.0020 C.ar    
   7 N7             1.1616     3.4868     0.0097 N.pl3   
   8 C8             0.2444     4.2807    -0.6097 C.2     
   9 C9             0.5822     5.5734    -0.3602 C.2     
  10 C10            1.7425     5.5690     0.4368 C.2     
  11 N11            2.0830     4.3169     0.6607 N.2     
  12 N12           -0.8438     3.8461    -1.3636 N.am    
  13 C13           -1.6773     4.7448    -1.9240 C.2     
  14 C14           -2.8331     4.2832    -2.7247 C.ar    
  15 C15           -3.6963     5.2139    -3.3051 C.ar    
  16 C16           -4.7725     4.7843    -4.0507 C.ar    
  17 C17           -4.9992     3.4179    -4.2260 C.ar    
  18 C18           -4.1355     2.4870    -3.6459 C.ar    
  19 C19           -3.0566     2.9171    -2.9043 C.ar    
  20 C20            2.4554     6.7682     0.9422 C.ar    
  21 C21            3.5986     6.6236     1.7257 C.ar    
  22 C22            4.2581     7.7425     2.1927 C.ar    
  23 C23            3.7858     9.0056     1.8847 C.ar    
  24 C24            2.6512     9.1550     1.1078 C.ar    
  25 C25            1.9874     8.0431     0.6303 C.ar    
  26 O26           -1.4798     5.9344    -1.7717 O.2     
  27 C27           -6.1547     2.9565    -5.0259 C.2     
  28 O28           -6.9062     3.7663    -5.5302 O.2     
  29 O29           -6.3733     1.6382    -5.1950 O.3     
  30 H30           -0.9589     1.9047     0.0169 H       
  31 H31           -0.9261    -0.5562     0.0083 H       
  32 H32            1.2201    -1.7605    -0.0187 H       
  33 H33            3.3389    -0.5085    -0.0326 H       
  34 H34            3.3168     1.9525    -0.0180 H       
  35 H35            0.0547     6.4480    -0.7111 H       
  36 H36           -1.0014     2.8968    -1.4851 H       
  37 H37           -3.5209     6.2709    -3.1695 H       
  38 H38           -5.4408     5.5044    -4.4992 H       
  39 H39           -4.3109     1.4300    -3.7811 H       
  40 H40           -2.3884     2.1971    -2.4555 H       
  41 H41            3.9678     5.6378     1.9673 H       
  42 H42            5.1442     7.6316     2.8000 H       
  43 H43            4.3048     9.8784     2.2526 H       
  44 H44            2.2866    10.1435     0.8707 H       
  45 H45            1.1019     8.1608     0.0234 H       
  46 H46           -7.1410     1.3851    -5.7257 H       
@<TRIPOS>BOND
   1    1    2 ar
   2    1    6 ar
   3    1   30 1
   4    2    3 ar
   5    2   31 1
   6    3    4 ar
   7    3   32 1
   8    4    5 ar
   9    4   33 1
  10    5    6 ar
  11    5   34 1
  12    6    7 1
  13    7    8 1
  14    7   11 1
  15    8    9 2
  16    8   12 1
  17    9   10 1
  18    9   35 1
  19   10   11 2
  20   10   20 1
  21   12   13 am
  22   12   36 1
  23   13   14 1
  24   13   26 2
  25   14   15 ar
  26   14   19 ar
  27   15   16 ar
  28   15   37 1
  29   16   17 ar
  30   16   38 1
  31   17   18 ar
  32   17   27 1
  33   18   19 ar
  34   18   39 1
  35   19   40 1
  36   20   21 ar
  37   20   25 ar
  38   21   22 ar
  39   21   41 1
  40   22   23 ar
  41   22   42 1
  42   23   24 ar
  43   23   43 1
  44   24   25 ar
  45   24   44 1
  46   25   45 1
  47   27   28 2
  48   27   29 1
  49   29   46 1

#	End of record

