#	Name: ASD01418002
#	Creating user name:	WinNT
#	Creation time:	15. 06. 2019 19:20

#	Modifying user name:	WinNT
#	Modification time:	15. 06. 2019 19:20

#	Program:	/corina/corina34_cracker 3.40 0067  02.08.2006

@<TRIPOS>MOLECULE
ASD01418002
  51   53    0    0    0
SMALL
NO_CHARGES


@<TRIPOS>ATOM
   1 C1            -0.1599     0.5707    -0.9900 C.2     
   2 C2             0.7565    -0.5753    -0.6466 C.3     
   3 C3             0.0901    -1.4635     0.4059 C.3     
   4 O4             0.2025     1.7091    -0.8096 O.2     
   5 O5            -1.3767     0.3269    -1.5015 O.3     
   6 C6             0.6210    -2.8688     0.2864 C.ar    
   7 C7             1.7737    -3.2316     0.9575 C.ar    
   8 C8             2.2607    -4.5207     0.8478 C.ar    
   9 C9             1.5947    -5.4470     0.0673 C.ar    
  10 C10            0.4415    -5.0845    -0.6031 C.ar    
  11 C11           -0.0479    -3.7966    -0.4899 C.ar    
  12 N12            2.0169    -0.0503    -0.1153 N.am    
  13 C13            2.0030     0.8928     1.0056 C.3     
  14 C14            1.9927     0.1290     2.3047 C.ar    
  15 C15            2.9298    -0.8618     2.5314 C.ar    
  16 C16            2.9203    -1.5624     3.7228 C.ar    
  17 C17            1.9740    -1.2719     4.6880 C.ar    
  18 C18            1.0377    -0.2807     4.4617 C.ar    
  19 C19            1.0499     0.4230     3.2717 C.ar    
  20 C20            3.9412    -2.6431     3.9696 C.3     
  21 F21            5.0722    -2.0865     4.5764 F       
  22 F22            3.3937    -3.6186     4.8098 F       
  23 F23            4.3053    -3.2275     2.7518 F       
  24 C24            3.1891    -0.4351    -0.6579 C.2     
  25 C25            4.4604     0.0852    -0.1147 C.ar    
  26 C26            5.6296     0.0169    -0.8774 C.ar    
  27 C27            6.8143     0.5051    -0.3634 C.ar    
  28 C28            6.8448     1.0610     0.9043 C.ar    
  29 C29            5.6888     1.1311     1.6645 C.ar    
  30 C30            4.4980     0.6524     1.1606 C.ar    
  31 O31            3.2002    -1.2103    -1.5942 O.2     
  32 Cl32           8.3383     1.6723     1.5442 Cl      
  33 Cl33           5.5925    -0.6804    -2.4668 Cl      
  34 H34            0.9565    -1.1619    -1.5432 H       
  35 H35            0.3097    -1.0755     1.4006 H       
  36 H36           -0.9884    -1.4678     0.2476 H       
  37 H37           -1.9288     1.0940    -1.7060 H       
  38 H38            2.2940    -2.5078     1.5673 H       
  39 H39            3.1617    -4.8039     1.3716 H       
  40 H40            1.9756    -6.4540    -0.0190 H       
  41 H41           -0.0786    -5.8082    -1.2131 H       
  42 H42           -0.9510    -3.5144    -1.0107 H       
  43 H43            2.8915     1.5227     0.9615 H       
  44 H44            1.1117     1.5172     0.9441 H       
  45 H45            3.6691    -1.0887     1.7775 H       
  46 H46            1.9661    -1.8198     5.6187 H       
  47 H47            0.2982    -0.0541     5.2155 H       
  48 H48            0.3207     1.2000     3.0963 H       
  49 H49            7.7189     0.4529    -0.9510 H       
  50 H50            5.7195     1.5656     2.6528 H       
  51 H51            3.5968     0.7124     1.7528 H       
@<TRIPOS>BOND
   1    1    2 1
   2    1    4 2
   3    1    5 1
   4    2    3 1
   5    2   12 1
   6    2   34 1
   7    3    6 1
   8    3   35 1
   9    3   36 1
  10    5   37 1
  11    6    7 ar
  12    6   11 ar
  13    7    8 ar
  14    7   38 1
  15    8    9 ar
  16    8   39 1
  17    9   10 ar
  18    9   40 1
  19   10   11 ar
  20   10   41 1
  21   11   42 1
  22   12   13 1
  23   12   24 am
  24   13   14 1
  25   13   43 1
  26   13   44 1
  27   14   15 ar
  28   14   19 ar
  29   15   16 ar
  30   15   45 1
  31   16   17 ar
  32   16   20 1
  33   17   18 ar
  34   17   46 1
  35   18   19 ar
  36   18   47 1
  37   19   48 1
  38   20   21 1
  39   20   22 1
  40   20   23 1
  41   24   25 1
  42   24   31 2
  43   25   26 ar
  44   25   30 ar
  45   26   27 ar
  46   26   33 1
  47   27   28 ar
  48   27   49 1
  49   28   29 ar
  50   28   32 1
  51   29   30 ar
  52   29   50 1
  53   30   51 1

#	End of record

