#	Name: ASD05143059
#	Creating user name:	WinNT
#	Creation time:	15. 06. 2019 20:57

#	Modifying user name:	WinNT
#	Modification time:	15. 06. 2019 20:57

#	Program:	/corina/corina34_cracker 3.40 0067  02.08.2006

@<TRIPOS>MOLECULE
ASD05143059
 154  158    0    0    0
SMALL
NO_CHARGES


@<TRIPOS>ATOM
   1 C1            -1.4591     2.7737     4.7032 C.2     
   2 C2            -0.8370     1.6777     5.5295 C.3     
   3 N3            -0.6882     3.5297     3.8966 N.am    
   4 O4            -2.6542     2.9721     4.7602 O.2     
   5 C5            -1.2929     4.5952     3.0933 C.3     
   6 C6            -2.3358     3.9929     2.1496 C.3     
   7 C7            -1.9575     5.5953     4.0039 C.2     
   8 C8            -1.6421     3.0718     1.1439 C.3     
   9 C9            -2.6850     2.4696     0.2002 C.3     
  10 N10           -2.0208     1.5876    -0.7627 N.pl3   
  11 C11           -2.7608     0.9301    -1.7168 C.2     
  12 N12           -2.1375     0.1025    -2.6204 N.pl3   
  13 N13           -4.0533     1.0915    -1.7646 N.2     
  14 O14           -2.2527     5.2808     5.1374 O.2     
  15 N15           -2.2237     6.8392     3.5586 N.am    
  16 C16           -2.8697     7.8114     4.4438 C.3     
  17 C17           -1.8266     8.8063     4.9565 C.3     
  18 C18           -0.5884     8.0464     5.4361 C.3     
  19 C19            0.3554     7.8418     4.2794 C.2     
  20 O20           -0.0579     7.4590     3.2053 O.2     
  21 N21            1.6853     8.0960     4.4626 N.am    
  22 C22            2.5442     7.8637     3.2791 C.3     
  23 C23            2.5870     9.1459     2.4454 C.3     
  24 C24            2.9900     8.8065     1.0090 C.3     
  25 C25            3.9005     9.9069     0.4604 C.3     
  26 N26            3.5950    10.1089    -0.9701 N.am    
  27 C27            5.3415     9.4942     0.6157 C.2     
  28 N28            5.9562     9.6282     1.8076 N.am    
  29 O29            5.9481     9.0414    -0.3319 O.2     
  30 C30            2.7327    11.1180    -1.2712 C.2     
  31 O31            2.2599    11.8049    -0.3906 O.2     
  32 C32            2.3734    11.3714    -2.7126 C.3     
  33 N33            1.1580    12.2167    -2.7537 N.am    
  34 C34            3.5267    12.0955    -3.4101 C.3     
  35 C35            0.0048    11.5673    -3.0928 C.2     
  36 O36            0.0144    10.3806    -3.3426 O.2     
  37 C37           -1.2797    12.3536    -3.1502 C.3     
  38 N38           -2.4116    11.4362    -2.9113 N.am    
  39 C39           -1.2642    13.4400    -2.0730 C.3     
  40 C40           -3.3616    11.8570    -2.0316 C.2     
  41 O41           -3.2572    12.9327    -1.4812 O.2     
  42 C42           -4.5452    10.9671    -1.7520 C.3     
  43 C43            3.2160    12.2379    -4.8778 C.2     
  44 C44            2.4270    13.3026    -5.5022 C.ar    
  45 C45            2.4098    13.0170    -6.8795 C.ar    
  46 N46            3.1375    11.8628    -7.0641 N.pl3   
  47 C47            3.6148    11.4165    -5.8618 C.2     
  48 C48            1.7616    14.4298    -5.0160 C.ar    
  49 C49            1.0962    15.2506    -5.8821 C.ar    
  50 C50            1.0759    14.9729    -7.2422 C.ar    
  51 C51            1.7263    13.8668    -7.7432 C.ar    
  52 N52           -4.8766    11.0568    -0.3116 N.am    
  53 C53           -4.1958     9.5210    -2.1092 C.3     
  54 C54           -5.4048     8.6459    -1.9007 C.ar    
  55 C55           -6.4872     8.7461    -2.7563 C.ar    
  56 C56           -7.5968     7.9419    -2.5645 C.ar    
  57 C57           -7.6231     7.0392    -1.5185 C.ar    
  58 C58           -6.5409     6.9394    -0.6637 C.ar    
  59 C59           -5.4302     7.7388    -0.8579 C.ar    
  60 C60           -3.9382     8.5524     3.6818 C.2     
  61 O61           -5.1071     8.4231     3.9784 O.2     
  62 C62           -0.9934    12.8019    -0.7090 C.3     
  63 C63           -1.1017    13.8679     0.3833 C.3     
  64 N64           -0.9534    13.2374     1.6973 N.pl3   
  65 C65           -1.1095    13.9854     2.8402 C.2     
  66 N66           -1.5068    15.2987     2.7533 N.pl3   
  67 N67           -0.8809    13.4495     4.0062 N.2     
  68 N68           -3.5726     9.3684     2.6553 N.am    
  69 C69           -4.6627    10.0680     1.9465 C.3     
  70 C70           -4.3672    10.0579     0.4689 C.2     
  71 O71           -3.6894     9.1784    -0.0189 O.2     
  72 C72           -4.7518    11.5129     2.4416 C.3     
  73 O73           -5.1296    11.5218     3.8198 O.3     
  74 C74           -5.1356    12.8220     4.4125 C.3     
  75 C75           -5.6617    12.7293     5.8216 C.ar    
  76 C76           -4.7821    12.6095     6.8813 C.ar    
  77 C77           -7.0236    12.7699     6.0550 C.ar    
  78 C78           -7.5061    12.6849     7.3476 C.ar    
  79 C79           -6.6268    12.5588     8.4068 C.ar    
  80 C80           -5.2647    12.5244     8.1739 C.ar    
  81 Cl81          -6.4537     9.8808    -4.0697 Cl      
  82 H82           -0.0940     2.1068     6.2019 H       
  83 H83           -1.6107     1.1793     6.1136 H       
  84 H84           -0.3563     0.9543     4.8709 H       
  85 H85            0.2671     3.3684     3.8480 H       
  86 H86           -0.5192     5.0935     2.5092 H       
  87 H87           -3.0607     3.4196     2.7275 H       
  88 H88           -2.8481     4.7934     1.6158 H       
  89 H89           -0.9172     3.6452     0.5660 H       
  90 H90           -1.1298     2.2714     1.6777 H       
  91 H91           -3.4099     1.8963     0.7781 H       
  92 H92           -3.1973     3.2701    -0.3335 H       
  93 H93           -1.0589     1.4676    -0.7271 H       
  94 H94           -1.1756    -0.0176    -2.5849 H       
  95 H95           -2.6596    -0.3614    -3.2936 H       
  96 H96           -4.5754     0.6276    -2.4377 H       
  97 H97           -1.9875     7.0907     2.6521 H       
  98 H98           -3.3207     7.2904     5.2883 H       
  99 H99           -1.5465     9.4860     4.1517 H       
 100 H100          -2.2457     9.3775     5.7849 H       
 101 H101          -0.0885     8.6215     6.2155 H       
 102 H102          -0.8888     7.0778     5.8356 H       
 103 H103           2.0419     8.4073     5.3092 H       
 104 H104           3.5520     7.6049     3.6038 H       
 105 H105           2.1306     7.0520     2.6806 H       
 106 H106           1.6020     9.6126     2.4459 H       
 107 H107           3.3154     9.8341     2.8743 H       
 108 H108           3.5217     7.8550     0.9961 H       
 109 H109           2.0966     8.7316     0.3891 H       
 110 H110           3.7231    10.8336     1.0062 H       
 111 H111           3.9882     9.5512    -1.6595 H       
 112 H112           5.4711     9.9904     2.5655 H       
 113 H113           6.8837     9.3626     1.9076 H       
 114 H114           2.1769    10.4232    -3.2130 H       
 115 H115           1.1793    13.1657    -2.5540 H       
 116 H116           3.6554    13.0836    -2.9684 H       
 117 H117           4.4443    11.5202    -3.2871 H       
 118 H118          -1.3831    12.8130    -4.1333 H       
 119 H119          -2.4749    10.5775    -3.3580 H       
 120 H120          -0.4804    14.1634    -2.2977 H       
 121 H121          -2.2298    13.9452    -2.0525 H       
 122 H122          -5.3986    11.2966    -2.3447 H       
 123 H123           3.2921    11.4323    -7.9194 H       
 124 H124           4.2165    10.5303    -5.7240 H       
 125 H125           1.7725    14.6517    -3.9591 H       
 126 H126           0.5817    16.1224    -5.5056 H       
 127 H127           0.5453    15.6310    -7.9143 H       
 128 H128           1.7049    13.6595    -8.8029 H       
 129 H129          -5.4175    11.7750     0.0525 H       
 130 H130          -3.8855     9.4693    -3.1528 H       
 131 H131          -3.3827     9.1754    -1.4708 H       
 132 H132          -8.4423     8.0200    -3.2319 H       
 133 H133          -8.4892     6.4117    -1.3685 H       
 134 H134          -6.5621     6.2340     0.1538 H       
 135 H135          -4.5850     7.6602    -0.1901 H       
 136 H136          -1.7257    12.0161    -0.5237 H       
 137 H137           0.0090    12.3738    -0.7007 H       
 138 H138          -0.3155    14.6102     0.2457 H       
 139 H139          -2.0753    14.3540     0.3213 H       
 140 H140          -0.7451    12.2922     1.7610 H       
 141 H141          -1.6040    15.7196     1.8848 H       
 142 H142          -1.6900    15.8045     3.5605 H       
 143 H143          -0.9911    13.9773     4.8125 H       
 144 H144          -2.6433     9.4847     2.4027 H       
 145 H145          -5.6071     9.5569     2.1336 H       
 146 H146          -3.7817    11.9965     2.3278 H       
 147 H147          -5.4974    12.0520     1.8571 H       
 148 H148          -4.1204    13.2185     4.4290 H       
 149 H149          -5.7748    13.4845     3.8288 H       
 150 H150          -3.7179    12.5819     6.6993 H       
 151 H151          -7.7106    12.8684     5.2275 H       
 152 H152          -8.5701    12.7173     7.5300 H       
 153 H153          -7.0038    12.4928     9.4167 H       
 154 H154          -4.5777    12.4260     9.0014 H       
@<TRIPOS>BOND
   1    1    2 1
   2    1    3 am
   3    1    4 2
   4    2   82 1
   5    2   83 1
   6    2   84 1
   7    3    5 1
   8    3   85 1
   9    5    6 1
  10    5    7 1
  11    5   86 1
  12    6    8 1
  13    6   87 1
  14    6   88 1
  15    7   14 2
  16    7   15 am
  17    8    9 1
  18    8   89 1
  19    8   90 1
  20    9   10 1
  21    9   91 1
  22    9   92 1
  23   10   11 1
  24   10   93 1
  25   11   12 1
  26   11   13 2
  27   12   94 1
  28   12   95 1
  29   13   96 1
  30   15   16 1
  31   15   97 1
  32   16   17 1
  33   16   60 1
  34   16   98 1
  35   17   18 1
  36   17   99 1
  37   17  100 1
  38   18   19 1
  39   18  101 1
  40   18  102 1
  41   19   20 2
  42   19   21 am
  43   21   22 1
  44   21  103 1
  45   22   23 1
  46   22  104 1
  47   22  105 1
  48   23   24 1
  49   23  106 1
  50   23  107 1
  51   24   25 1
  52   24  108 1
  53   24  109 1
  54   25   26 1
  55   25   27 1
  56   25  110 1
  57   26   30 am
  58   26  111 1
  59   27   28 am
  60   27   29 2
  61   28  112 1
  62   28  113 1
  63   30   31 2
  64   30   32 1
  65   32   33 1
  66   32   34 1
  67   32  114 1
  68   33   35 am
  69   33  115 1
  70   34   43 1
  71   34  116 1
  72   34  117 1
  73   35   36 2
  74   35   37 1
  75   37   38 1
  76   37   39 1
  77   37  118 1
  78   38   40 am
  79   38  119 1
  80   39   62 1
  81   39  120 1
  82   39  121 1
  83   40   41 2
  84   40   42 1
  85   42   52 1
  86   42   53 1
  87   42  122 1
  88   43   44 1
  89   43   47 2
  90   44   45 ar
  91   44   48 ar
  92   45   46 1
  93   45   51 ar
  94   46   47 1
  95   46  123 1
  96   47  124 1
  97   48   49 ar
  98   48  125 1
  99   49   50 ar
 100   49  126 1
 101   50   51 ar
 102   50  127 1
 103   51  128 1
 104   52   70 am
 105   52  129 1
 106   53   54 1
 107   53  130 1
 108   53  131 1
 109   54   55 ar
 110   54   59 ar
 111   55   56 ar
 112   55   81 1
 113   56   57 ar
 114   56  132 1
 115   57   58 ar
 116   57  133 1
 117   58   59 ar
 118   58  134 1
 119   59  135 1
 120   60   61 2
 121   60   68 am
 122   62   63 1
 123   62  136 1
 124   62  137 1
 125   63   64 1
 126   63  138 1
 127   63  139 1
 128   64   65 1
 129   64  140 1
 130   65   66 1
 131   65   67 2
 132   66  141 1
 133   66  142 1
 134   67  143 1
 135   68   69 1
 136   68  144 1
 137   69   70 1
 138   69   72 1
 139   69  145 1
 140   70   71 2
 141   72   73 1
 142   72  146 1
 143   72  147 1
 144   73   74 1
 145   74   75 1
 146   74  148 1
 147   74  149 1
 148   75   76 ar
 149   75   77 ar
 150   76   80 ar
 151   76  150 1
 152   77   78 ar
 153   77  151 1
 154   78   79 ar
 155   78  152 1
 156   79   80 ar
 157   79  153 1
 158   80  154 1

#	End of record

