#	Name: ASD01814115
#	Creating user name:	WinNT
#	Creation time:	15. 06. 2019 19:31

#	Modifying user name:	WinNT
#	Modification time:	15. 06. 2019 19:31

#	Program:	/corina/corina34_cracker 3.40 0067  02.08.2006

@<TRIPOS>MOLECULE
ASD01814115
  55   57    0    0    0
SMALL
NO_CHARGES


@<TRIPOS>ATOM
   1 C1            -0.0548     1.4964    -0.2349 C.ar    
   2 C2            -0.0745     0.0426    -0.5032 C.2     
   3 N3             1.0600    -0.5926    -0.8581 N.am    
   4 O4            -1.1139    -0.5798    -0.4038 O.2     
   5 C5             1.0405    -2.0331    -1.1239 C.3     
   6 C6             2.4469    -2.5007    -1.5039 C.3     
   7 N7             2.4273    -3.9452    -1.7704 N.3     
   8 C8             3.7639    -4.4306    -2.1392 C.3     
   9 C9             3.8739    -5.9217    -1.8077 C.3     
  10 C10            5.2170    -6.4506    -2.3354 C.3     
  11 N11            5.1902    -6.3244    -3.8127 N.am    
  12 C12            5.3226    -4.8650    -4.0400 C.3     
  13 C13            3.9874    -4.2177    -3.6393 C.3     
  14 C14            6.3221    -5.4658    -1.8891 C.3     
  15 C15            6.3921    -4.4159    -3.0177 C.3     
  16 C16            5.0733    -7.3039    -4.7311 C.2     
  17 O17            5.0677    -6.9997    -6.0427 O.3     
  18 O18            4.9729    -8.4614    -4.3754 O.2     
  19 C19            4.9384    -8.1052    -6.9752 C.3     
  20 C20            4.9517    -7.5682    -8.4078 C.3     
  21 C21            1.1045     2.2368    -0.4703 C.ar    
  22 C22            1.1160     3.5934    -0.2183 C.ar    
  23 C23           -0.0182     4.2195     0.2667 C.ar    
  24 C24           -1.1710     3.4911     0.5022 C.ar    
  25 C25           -1.1975     2.1354     0.2494 C.ar    
  26 C26           -2.4539     1.3438     0.5060 C.3     
  27 H27            1.8894    -0.0959    -0.9374 H       
  28 H28            0.7104    -2.5631    -0.2304 H       
  29 H29            0.3541    -2.2419    -1.9445 H       
  30 H30            2.7769    -1.9708    -2.3974 H       
  31 H31            3.1333    -2.2919    -0.6833 H       
  32 H32            2.0635    -4.4541    -0.9788 H       
  33 H33            4.5179    -3.8779    -1.5788 H       
  34 H34            3.8260    -6.0600    -0.7275 H       
  35 H35            3.0560    -6.4628    -2.2835 H       
  36 H36            5.4102    -7.4737    -2.0128 H       
  37 H37            5.5993    -4.6315    -5.0681 H       
  38 H38            3.1747    -4.6809    -4.1988 H       
  39 H39            4.0198    -3.1499    -3.8556 H       
  40 H40            6.0499    -4.9918    -0.9460 H       
  41 H41            7.2762    -5.9840    -1.7929 H       
  42 H42            7.3806    -4.4175    -3.4770 H       
  43 H43            6.1543    -3.4253    -2.6300 H       
  44 H44            5.7708    -8.7954    -6.8381 H       
  45 H45            3.9994    -8.6275    -6.7916 H       
  46 H46            4.8546    -8.3981    -9.1078 H       
  47 H47            4.1192    -6.8780    -8.5448 H       
  48 H48            5.8907    -7.0460    -8.5913 H       
  49 H49            1.9907     1.7491    -0.8486 H       
  50 H50            2.0126     4.1675    -0.3997 H       
  51 H51           -0.0039     5.2815     0.4626 H       
  52 H52           -2.0530     3.9859     0.8812 H       
  53 H53           -3.0116     1.2357    -0.4243 H       
  54 H54           -2.1904     0.3576     0.8883 H       
  55 H55           -3.0686     1.8655     1.2396 H       
@<TRIPOS>BOND
   1    1    2 1
   2    1   21 ar
   3    1   25 ar
   4    2    3 am
   5    2    4 2
   6    3    5 1
   7    3   27 1
   8    5    6 1
   9    5   28 1
  10    5   29 1
  11    6    7 1
  12    6   30 1
  13    6   31 1
  14    7    8 1
  15    7   32 1
  16    8    9 1
  17    8   13 1
  18    8   33 1
  19    9   10 1
  20    9   34 1
  21    9   35 1
  22   10   11 1
  23   10   14 1
  24   10   36 1
  25   11   12 1
  26   11   16 am
  27   12   13 1
  28   12   15 1
  29   12   37 1
  30   13   38 1
  31   13   39 1
  32   14   15 1
  33   14   40 1
  34   14   41 1
  35   15   42 1
  36   15   43 1
  37   16   17 1
  38   16   18 2
  39   17   19 1
  40   19   20 1
  41   19   44 1
  42   19   45 1
  43   20   46 1
  44   20   47 1
  45   20   48 1
  46   21   22 ar
  47   21   49 1
  48   22   23 ar
  49   22   50 1
  50   23   24 ar
  51   23   51 1
  52   24   25 ar
  53   24   52 1
  54   25   26 1
  55   26   53 1
  56   26   54 1
  57   26   55 1

#	End of record

