#	Name: ASD08150475
#	Creating user name:	WinNT
#	Creation time:	15. 06. 2019 21:16

#	Modifying user name:	WinNT
#	Modification time:	15. 06. 2019 21:16

#	Program:	/corina/corina34_cracker 3.40 0067  02.08.2006

@<TRIPOS>MOLECULE
ASD08150475
  43   47    0    0    0
SMALL
NO_CHARGES


@<TRIPOS>ATOM
   1 N1             0.9065     2.9475    -1.6551 N.am    
   2 C2             1.3490     2.3430    -2.7747 C.2     
   3 C3             2.5587     1.6192    -2.7765 C.2     
   4 C4             3.2980     1.5215    -1.6423 C.2     
   5 C5             2.8357     2.1566    -0.4626 C.ar    
   6 C6             3.5642     2.0869     0.7402 C.ar    
   7 N7             3.1356     2.6741     1.8269 N.ar    
   8 C8             1.9894     3.3706     1.8618 C.ar    
   9 C9             1.1916     3.4936     0.6976 C.ar    
  10 C10            1.6272     2.8694    -0.4948 C.ar    
  11 C11           -0.0015     4.2212     0.7446 C.ar    
  12 C12           -0.3915     4.8159     1.9335 C.ar    
  13 C13            0.4034     4.6903     3.0814 C.ar    
  14 C14            1.5661     3.9854     3.0515 C.ar    
  15 O15            0.6942     2.4226    -3.8001 O.2     
  16 C16           -1.6557     5.5896     1.9921 C.ar    
  17 C17           -0.2958     3.6652    -1.6804 C.ar    
  18 C18           -0.2878     5.0256    -1.9595 C.ar    
  19 C19           -1.4745     5.7313    -1.9845 C.ar    
  20 C20           -2.6721     5.0834    -1.7315 C.ar    
  21 C21           -2.6823     3.7268    -1.4531 C.ar    
  22 C22           -1.4983     3.0163    -1.4323 C.ar    
  23 F23           -3.8319     5.7758    -1.7560 F       
  24 C24           -1.7494     6.7517     2.7626 C.ar    
  25 N25           -2.8927     7.4135     2.7887 N.ar    
  26 C26           -3.9404     6.9885     2.0972 C.ar    
  27 N27           -3.8907     5.8912     1.3556 N.ar    
  28 C28           -2.7814     5.1781     1.2736 C.ar    
  29 N29           -5.1195     7.7104     2.1515 N.pl3   
  30 H30            2.8981     1.1405    -3.6832 H       
  31 H31            4.2250     0.9674    -1.6388 H       
  32 H32            4.4940     1.5379     0.7658 H       
  33 H33           -0.6142     4.3192    -0.1394 H       
  34 H34            0.0881     5.1591     4.0017 H       
  35 H35            2.1661     3.8985     3.9454 H       
  36 H36            0.6459     5.5313    -2.1564 H       
  37 H37           -1.4687     6.7894    -2.2011 H       
  38 H38           -3.6172     3.2235    -1.2557 H       
  39 H39           -1.5067     1.9584    -1.2154 H       
  40 H40           -0.8997     7.1035     3.3288 H       
  41 H41           -2.7479     4.2851     0.6670 H       
  42 H42           -5.1709     8.5154     2.6903 H       
  43 H43           -5.8946     7.4116     1.6508 H       
@<TRIPOS>BOND
   1    1    2 am
   2    1   10 1
   3    1   17 1
   4    2    3 1
   5    2   15 2
   6    3    4 2
   7    3   30 1
   8    4    5 1
   9    4   31 1
  10    5    6 ar
  11    5   10 ar
  12    6    7 ar
  13    6   32 1
  14    7    8 ar
  15    8    9 ar
  16    8   14 ar
  17    9   10 ar
  18    9   11 ar
  19   11   12 ar
  20   11   33 1
  21   12   13 ar
  22   12   16 1
  23   13   14 ar
  24   13   34 1
  25   14   35 1
  26   16   24 ar
  27   16   28 ar
  28   17   18 ar
  29   17   22 ar
  30   18   19 ar
  31   18   36 1
  32   19   20 ar
  33   19   37 1
  34   20   21 ar
  35   20   23 1
  36   21   22 ar
  37   21   38 1
  38   22   39 1
  39   24   25 ar
  40   24   40 1
  41   25   26 ar
  42   26   27 ar
  43   26   29 1
  44   27   28 ar
  45   28   41 1
  46   29   42 1
  47   29   43 1

#	End of record

