#	Name: ASD09740058
#	Creating user name:	WinNT
#	Creation time:	15. 06. 2019 21:22

#	Modifying user name:	WinNT
#	Modification time:	15. 06. 2019 21:22

#	Program:	/corina/corina34_cracker 3.40 0067  02.08.2006

@<TRIPOS>MOLECULE
ASD09740058
  40   42    0    0    0
SMALL
NO_CHARGES


@<TRIPOS>ATOM
   1 N1            -0.0144     1.2085     0.0087 N.2     
   2 O2             0.0021    -0.0041     0.0020 O.3     
   3 C3             1.2055     1.6807    -0.0004 C.2     
   4 N4             2.0463     0.6259    -0.0141 N.2     
   5 C5             1.2706    -0.4439    -0.0125 C.2     
   6 C6             1.7131    -1.8506    -0.0235 C.ar    
   7 C7             1.5933     3.1143     0.0028 C.ar    
   8 C8             0.7674    -2.8861    -0.0201 C.ar    
   9 C9             3.0760    -2.1568    -0.0431 C.ar    
  10 C10            3.4855    -3.4715    -0.0534 C.ar    
  11 C11            2.5467    -4.4971    -0.0447 C.ar    
  12 C12            1.1908    -4.2036    -0.0305 C.ar    
  13 C13            0.6237     4.1198     0.0172 C.ar    
  14 C14            1.0277     5.4398     0.0197 C.ar    
  15 N15            2.3081     5.7558     0.0083 N.ar    
  16 C16            3.2544     4.8374    -0.0054 C.ar    
  17 C17            2.9377     3.4937    -0.0026 C.ar    
  18 O18           -0.5587    -2.5971    -0.0063 O.3     
  19 C19           -2.9030    -3.1842     0.0124 C.3     
  20 C20           -1.4637    -3.7030    -0.0037 C.3     
  21 O21            2.9584    -5.7909    -0.0553 O.3     
  22 C22            4.6373    -7.5290    -0.0848 C.3     
  23 C23            4.3683    -6.0228    -0.0753 C.3     
  24 H24            3.8081    -1.3628    -0.0507 H       
  25 H25            4.5395    -3.7068    -0.0685 H       
  26 H26            0.4654    -5.0037    -0.0234 H       
  27 H27           -0.4265     3.8681     0.0259 H       
  28 H28            0.2853     6.2242     0.0308 H       
  29 H29            4.2910     5.1405    -0.0145 H       
  30 H30            3.7178     2.7469    -0.0139 H       
  31 H31           -3.5933    -4.0278     0.0144 H       
  32 H32           -3.0622    -2.5823     0.9071 H       
  33 H33           -3.0788    -2.5730    -0.8728 H       
  34 H34           -1.3045    -4.3050    -0.8983 H       
  35 H35           -1.2879    -4.3143     0.8815 H       
  36 H36            4.2075    -7.9805     0.8093 H       
  37 H37            4.1834    -7.9735    -0.9705 H       
  38 H38            5.7128    -7.7059    -0.1001 H       
  39 H39            4.7982    -5.5713    -0.9694 H       
  40 H40            4.8223    -5.5783     0.8104 H       
@<TRIPOS>BOND
   1    1    2 1
   2    1    3 2
   3    2    5 1
   4    3    4 1
   5    3    7 1
   6    4    5 2
   7    5    6 1
   8    6    8 ar
   9    6    9 ar
  10    7   13 ar
  11    7   17 ar
  12    8   18 1
  13    8   12 ar
  14    9   10 ar
  15    9   24 1
  16   10   11 ar
  17   10   25 1
  18   11   12 ar
  19   11   21 1
  20   12   26 1
  21   13   14 ar
  22   13   27 1
  23   14   15 ar
  24   14   28 1
  25   15   16 ar
  26   16   17 ar
  27   16   29 1
  28   17   30 1
  29   18   20 1
  30   19   20 1
  31   19   31 1
  32   19   32 1
  33   19   33 1
  34   20   34 1
  35   20   35 1
  36   21   23 1
  37   22   23 1
  38   22   36 1
  39   22   37 1
  40   22   38 1
  41   23   39 1
  42   23   40 1

#	End of record

