#	Name: ASD01810257
#	Creating user name:	WinNT
#	Creation time:	15. 06. 2019 19:24

#	Modifying user name:	WinNT
#	Modification time:	15. 06. 2019 19:24

#	Program:	/corina/corina34_cracker 3.40 0067  02.08.2006

@<TRIPOS>MOLECULE
ASD01810257
  43   46    0    0    0
SMALL
NO_CHARGES


@<TRIPOS>ATOM
   1 C1             1.1622     2.2516    -0.5169 C.ar    
   2 C2             0.7845     0.9177    -0.5013 C.ar    
   3 C3             1.7255    -0.0802    -0.3487 C.ar    
   4 C4             3.0726     0.2480    -0.2081 C.ar    
   5 C5             3.4540     1.6005    -0.2242 C.ar    
   6 C6             2.4908     2.6005    -0.3795 C.ar    
   7 N7             4.0220    -0.7404    -0.0545 N.pl3   
   8 C8             5.3274    -0.4768     0.0846 C.2     
   9 C9             5.8214     0.8121     0.0843 C.2     
  10 C10            4.8816     1.9340    -0.0746 C.2     
  11 F11            2.8572     3.9008    -0.3954 F       
  12 F12            1.3407    -1.3752    -0.3352 F       
  13 O13            5.2678     3.0898    -0.0818 O.2     
  14 C14            3.5836    -2.1382    -0.0425 C.3     
  15 C15            3.4393    -2.6316    -1.4591 C.ar    
  16 C16            4.5220    -2.5802    -2.3216 C.ar    
  17 C17            4.3937    -3.0319    -3.6221 C.ar    
  18 C18            3.1735    -3.5387    -4.0629 C.ar    
  19 C19            2.0882    -3.5875    -3.1898 C.ar    
  20 C20            2.2279    -3.1394    -1.8920 C.ar    
  21 C21            3.0293    -4.0245    -5.4576 C.ar    
  22 F22            5.7044    -2.0878    -1.8919 F       
  23 C23            1.8089    -4.5347    -5.9089 C.ar    
  24 C24            1.7252    -4.9753    -7.2181 C.ar    
  25 C25            2.8428    -4.8973    -8.0314 C.ar    
  26 N26            3.9823    -4.4107    -7.5760 N.ar    
  27 C27            4.1066    -3.9740    -6.3393 C.ar    
  28 Cl28           2.7445    -5.4483    -9.6746 Cl      
  29 C29            7.2616     1.0602     0.2396 C.2     
  30 O30            7.7319     2.3235     0.2377 O.3     
  31 O31            8.0287     0.1262     0.3697 O.2     
  32 H32            0.4144     3.0208    -0.6417 H       
  33 H33           -0.2579     0.6566    -0.6094 H       
  34 H34            6.0167    -1.3000     0.2012 H       
  35 H35            4.3219    -2.7460     0.4805 H       
  36 H36            2.6236    -2.2135     0.4681 H       
  37 H37            5.2377    -2.9916    -4.2948 H       
  38 H38            1.1401    -3.9793    -3.5274 H       
  39 H39            1.3870    -3.1776    -1.2154 H       
  40 H40            0.9528    -4.5841    -5.2523 H       
  41 H41            0.7982    -5.3759    -7.6011 H       
  42 H42            5.0553    -3.5827    -6.0029 H       
  43 H43            8.6865     2.4367     0.3429 H       
@<TRIPOS>BOND
   1    1    2 ar
   2    1    6 ar
   3    1   32 1
   4    2    3 ar
   5    2   33 1
   6    3    4 ar
   7    3   12 1
   8    4    5 ar
   9    4    7 1
  10    5    6 ar
  11    5   10 1
  12    6   11 1
  13    7    8 1
  14    7   14 1
  15    8    9 2
  16    8   34 1
  17    9   10 1
  18    9   29 1
  19   10   13 2
  20   14   15 1
  21   14   35 1
  22   14   36 1
  23   15   16 ar
  24   15   20 ar
  25   16   17 ar
  26   16   22 1
  27   17   18 ar
  28   17   37 1
  29   18   19 ar
  30   18   21 1
  31   19   20 ar
  32   19   38 1
  33   20   39 1
  34   21   23 ar
  35   21   27 ar
  36   23   24 ar
  37   23   40 1
  38   24   25 ar
  39   24   41 1
  40   25   26 ar
  41   25   28 1
  42   26   27 ar
  43   27   42 1
  44   29   30 1
  45   29   31 2
  46   30   43 1

#	End of record

