#	Name: ASD01811240
#	Creating user name:	WinNT
#	Creation time:	15. 06. 2019 19:26

#	Modifying user name:	WinNT
#	Modification time:	15. 06. 2019 19:26

#	Program:	/corina/corina34_cracker 3.40 0067  02.08.2006

@<TRIPOS>MOLECULE
ASD01811240
  14   13    0    0    0
SMALL
NO_CHARGES


@<TRIPOS>ATOM
   1 C1            -0.0184     1.5028     0.0103 C.3     
   2 C2             0.0021    -0.0041     0.0020 C.2     
   3 C3            -1.2926    -0.7753     0.0102 C.3     
   4 O4             1.0559    -0.5936    -0.0112 O.2     
   5 O5            -1.0125    -2.1765     0.0000 O.3     
   6 C6            -2.1786    -3.0024     0.0067 C.3     
   7 Br7            1.8261     2.1833    -0.0037 Br      
   8 H8            -0.5455     1.8639    -0.8728 H       
   9 H9            -0.5286     1.8543     0.9071 H       
  10 H10           -1.8592    -0.5245     0.9070 H       
  11 H11           -1.8762    -0.5150    -0.8728 H       
  12 H12           -2.7636    -2.7979     0.9035 H       
  13 H13           -2.7806    -2.7883    -0.8764 H       
  14 H14           -1.8812    -4.0510    -0.0017 H       
@<TRIPOS>BOND
   1    1    2 1
   2    1    7 1
   3    1    8 1
   4    1    9 1
   5    2    3 1
   6    2    4 2
   7    3    5 1
   8    3   10 1
   9    3   11 1
  10    5    6 1
  11    6   12 1
  12    6   13 1
  13    6   14 1

#	End of record

