#	Name: ASD01913759
#	Creating user name:	WinNT
#	Creation time:	15. 06. 2019 20:02

#	Modifying user name:	WinNT
#	Modification time:	15. 06. 2019 20:02

#	Program:	/corina/corina34_cracker 3.40 0067  02.08.2006

@<TRIPOS>MOLECULE
ASD01913759
  42   44    0    0    0
SMALL
NO_CHARGES


@<TRIPOS>ATOM
   1 O1            -0.0140     1.3514    -0.0643 O.3     
   2 C2             0.0039    -0.0034    -0.0509 C.ar    
   3 C3            -1.1971    -0.7046    -0.0130 C.ar    
   4 C4            -1.1726    -2.0843     0.0004 C.ar    
   5 C5             0.0729    -2.7287    -0.0250 C.ar    
   6 C6             1.2342    -1.9554    -0.0627 C.ar    
   7 N7             1.1643    -0.6410    -0.0797 N.ar    
   8 C8             0.1542    -4.2023    -0.0116 C.2     
   9 N9             1.3564    -4.8111    -0.0362 N.am    
  10 O10           -0.8634    -4.8672     0.0217 O.2     
  11 C11            1.2501     2.0166    -0.1035 C.3     
  12 C12            1.0330     3.5079    -0.1131 C.ar    
  13 C13            0.9641     4.2037     1.0793 C.ar    
  14 C14            0.7645     5.5718     1.0720 C.ar    
  15 C15            0.6335     6.2451    -0.1275 C.ar    
  16 C16            0.7028     5.5491    -1.3227 C.ar    
  17 C17            0.9083     4.1801    -1.3143 C.ar    
  18 C18            1.4372    -6.2062     0.0617 C.ar    
  19 F19            0.5748     6.2064    -2.4961 F       
  20 C20           -2.5102     0.0343     0.0137 C.3     
  21 C21            0.3669    -6.9940    -0.3377 C.ar    
  22 C22            0.4485    -8.3700    -0.2408 C.ar    
  23 C23            1.5967    -8.9640     0.2547 C.ar    
  24 C24            2.6668    -8.1811     0.6547 C.ar    
  25 C25            2.5924    -6.8042     0.5540 C.ar    
  26 F26            3.6361    -6.0401     0.9441 F       
  27 F27            1.6732   -10.3096     0.3485 F       
  28 H28           -2.0898    -2.6537     0.0301 H       
  29 H29            2.1991    -2.4401    -0.0821 H       
  30 H30            2.1657    -4.2833    -0.1218 H       
  31 H31            1.8336     1.7401     0.7747 H       
  32 H32            1.7879     1.7220    -1.0046 H       
  33 H33            1.0660     3.6782     2.0173 H       
  34 H34            0.7105     6.1144     2.0043 H       
  35 H35            0.4768     7.3137    -0.1329 H       
  36 H36            0.9625     3.6363    -2.2458 H       
  37 H37           -2.8533     0.2024    -1.0072 H       
  38 H38           -3.2496    -0.5580     0.5527 H       
  39 H39           -2.3774     0.9931     0.5148 H       
  40 H40           -0.5296    -6.5319    -0.7237 H       
  41 H41           -0.3846    -8.9829    -0.5517 H       
  42 H42            3.5613    -8.6465     1.0416 H       
@<TRIPOS>BOND
   1    1    2 1
   2    1   11 1
   3    2    3 ar
   4    2    7 ar
   5    3    4 ar
   6    3   20 1
   7    4    5 ar
   8    4   28 1
   9    5    6 ar
  10    5    8 1
  11    6    7 ar
  12    6   29 1
  13    8    9 am
  14    8   10 2
  15    9   18 1
  16    9   30 1
  17   11   12 1
  18   11   31 1
  19   11   32 1
  20   12   13 ar
  21   12   17 ar
  22   13   14 ar
  23   13   33 1
  24   14   15 ar
  25   14   34 1
  26   15   16 ar
  27   15   35 1
  28   16   17 ar
  29   16   19 1
  30   17   36 1
  31   18   21 ar
  32   18   25 ar
  33   20   37 1
  34   20   38 1
  35   20   39 1
  36   21   22 ar
  37   21   40 1
  38   22   23 ar
  39   22   41 1
  40   23   24 ar
  41   23   27 1
  42   24   25 ar
  43   24   42 1
  44   25   26 1

#	End of record

