#	Name: ASD01880935
#	Creating user name:	WinNT
#	Creation time:	15. 06. 2019 19:41

#	Modifying user name:	WinNT
#	Modification time:	15. 06. 2019 19:41

#	Program:	/corina/corina34_cracker 3.40 0067  02.08.2006

@<TRIPOS>MOLECULE
ASD01880935
  35   37    0    0    0
SMALL
NO_CHARGES


@<TRIPOS>ATOM
   1 N1            -0.0158     1.3136     0.0093 N.ar    
   2 C2             0.0021    -0.0041     0.0020 C.ar    
   3 N3             1.1320    -0.6826    -0.0124 N.ar    
   4 C4             2.2985    -0.0575    -0.0202 C.ar    
   5 C5             2.3211     1.3280    -0.0130 C.ar    
   6 C6             1.1121     2.0071     0.0022 C.ar    
   7 C7             3.6278     2.0786    -0.0209 C.3     
   8 O8             4.7118     1.1476    -0.0359 O.3     
   9 C9             5.9670     1.6635    -0.0446 C.ar    
  10 C10            7.0682     0.8124    -0.0593 C.ar    
  11 C11            8.3375     1.3344    -0.0686 C.ar    
  12 C12            8.5335     2.7197    -0.0634 C.ar    
  13 C13            7.4236     3.5712    -0.0486 C.ar    
  14 C14            6.1510     3.0404    -0.0447 C.ar    
  15 C15            9.7107     0.7104    -0.0851 C.3     
  16 N16           10.6663     1.8240    -0.0887 N.am    
  17 C17            9.9825     2.9810    -0.0762 C.2     
  18 O18           10.4885     4.0866    -0.0758 O.2     
  19 Cl19           7.6481     5.2926    -0.0415 Cl      
  20 I20            1.0708     4.1017     0.0132 I       
  21 C21           12.6192     1.6588    -1.5517 C.3     
  22 C22           12.1256     1.6958    -0.1040 C.3     
  23 H23           -0.9342    -0.5424     0.0084 H       
  24 H24            3.2205    -0.6198    -0.0317 H       
  25 H25            3.6788     2.7099    -0.9080 H       
  26 H26            3.6951     2.7003     0.8718 H       
  27 H27            6.9240    -0.2579    -0.0630 H       
  28 H28            5.2940     3.6976    -0.0337 H       
  29 H29            9.8541     0.0965     0.8040 H       
  30 H30            9.8367     0.1056    -0.9831 H       
  31 H31           12.1742     0.8068    -2.0657 H       
  32 H32           12.3301     2.5799    -2.0578 H       
  33 H33           13.7049     1.5634    -1.5631 H       
  34 H34           12.5706     2.5478     0.4099 H       
  35 H35           12.4147     0.7747     0.4020 H       
@<TRIPOS>BOND
   1    1    2 ar
   2    1    6 ar
   3    2    3 ar
   4    2   23 1
   5    3    4 ar
   6    4    5 ar
   7    4   24 1
   8    5    6 ar
   9    5    7 1
  10    6   20 1
  11    7    8 1
  12    7   25 1
  13    7   26 1
  14    8    9 1
  15    9   10 ar
  16    9   14 ar
  17   10   11 ar
  18   10   27 1
  19   11   12 ar
  20   11   15 1
  21   12   13 ar
  22   12   17 1
  23   13   14 ar
  24   13   19 1
  25   14   28 1
  26   15   16 1
  27   15   29 1
  28   15   30 1
  29   16   17 am
  30   16   22 1
  31   17   18 2
  32   21   22 1
  33   21   31 1
  34   21   32 1
  35   21   33 1
  36   22   34 1
  37   22   35 1

#	End of record

