#	Name: ASD03082114
#	Creating user name:	WinNT
#	Creation time:	15. 06. 2019 20:27

#	Modifying user name:	WinNT
#	Modification time:	15. 06. 2019 20:27

#	Program:	/corina/corina34_cracker 3.40 0067  02.08.2006

@<TRIPOS>MOLECULE
ASD03082114
  32   33    0    0    0
SMALL
NO_CHARGES


@<TRIPOS>ATOM
   1 C1            -0.0188     1.5318     0.0105 C.3     
   2 C2             0.0021    -0.0041     0.0020 C.3     
   3 N3             0.7067    -0.4274    -1.2181 N.pl3   
   4 C4             1.8526     0.2482    -1.5890 C.2     
   5 N5             2.1923     1.3775    -1.0515 N.2     
   6 C6             1.4256     2.0367    -0.0006 C.3     
   7 C7             0.2033    -1.5432    -2.0230 C.3     
   8 C8             2.7152    -0.3325    -2.6265 C.2     
   9 C9             3.8365     0.3070    -3.0045 C.2     
  10 C10            4.7015    -0.2754    -4.0450 C.ar    
  11 C11            5.8670     0.3865    -4.4398 C.ar    
  12 C12            4.3627    -1.4952    -4.6374 C.ar    
  13 C13            5.1757    -2.0370    -5.6115 C.ar    
  14 C14            6.3258    -1.3775    -6.0043 C.ar    
  15 C15            6.6741    -0.1674    -5.4181 C.ar    
  16 O16            7.8059     0.4755    -5.8089 O.3     
  17 H17           -0.5408     1.8959    -0.8744 H       
  18 H18           -0.5238     1.8863     0.9090 H       
  19 H19            0.5301    -0.3723     0.8816 H       
  20 H20           -1.0179    -0.3884    -0.0069 H       
  21 H21            1.4287     3.1127    -0.1747 H       
  22 H22            1.8865     1.8283     0.9649 H       
  23 H23           -0.4874    -1.1650    -2.7766 H       
  24 H24            1.0385    -2.0430    -2.5137 H       
  25 H25           -0.3156    -2.2518    -1.3774 H       
  26 H26            2.4490    -1.2730    -3.0859 H       
  27 H27            4.1026     1.2475    -2.5451 H       
  28 H28            6.1368     1.3274    -3.9833 H       
  29 H29            3.4655    -2.0134    -4.3326 H       
  30 H30            4.9131    -2.9796    -6.0686 H       
  31 H31            6.9583    -1.8073    -6.7669 H       
  32 H32            7.6745     1.0935    -6.5409 H       
@<TRIPOS>BOND
   1    1    2 1
   2    1    6 1
   3    1   17 1
   4    1   18 1
   5    2    3 1
   6    2   19 1
   7    2   20 1
   8    3    4 1
   9    3    7 1
  10    4    5 2
  11    4    8 1
  12    5    6 1
  13    6   21 1
  14    6   22 1
  15    7   23 1
  16    7   24 1
  17    7   25 1
  18    8    9 2
  19    8   26 1
  20    9   10 1
  21    9   27 1
  22   10   11 ar
  23   10   12 ar
  24   11   15 ar
  25   11   28 1
  26   12   13 ar
  27   12   29 1
  28   13   14 ar
  29   13   30 1
  30   14   15 ar
  31   14   31 1
  32   15   16 1
  33   16   32 1

#	End of record

