#	Name: ASD05430074
#	Creating user name:	WinNT
#	Creation time:	15. 06. 2019 20:59

#	Modifying user name:	WinNT
#	Modification time:	15. 06. 2019 20:59

#	Program:	/corina/corina34_cracker 3.40 0067  02.08.2006

@<TRIPOS>MOLECULE
ASD05430074
  68   73    0    0    0
SMALL
NO_CHARGES


@<TRIPOS>ATOM
   1 C1             0.0602     1.1743     0.4067 C.ar    
   2 C2             0.0203    -0.0138    -0.3220 C.ar    
   3 C3             1.1659    -0.4869    -0.9486 C.ar    
   4 C4             2.3477     0.2153    -0.8530 C.ar    
   5 C5             2.3953     1.4081    -0.1238 C.ar    
   6 C6             1.2418     1.8845     0.5067 C.ar    
   7 C7             4.8671    -0.0025     0.2153 C.3     
   8 C8             4.8285     1.4999     0.0679 C.2     
   9 C9             3.6566     2.1594    -0.0200 C.2     
  10 C10            6.2214    -0.4620     0.7524 C.3     
  11 C11            6.8332     0.5760     1.6956 C.3     
  12 N12            7.0779     1.8135     0.9544 N.pl3   
  13 C13            6.1096     2.2212     0.0236 C.2     
  14 N14           -1.1793    -0.7331    -0.4219 N.pl3   
  15 C15           -1.7528    -1.2049    -1.5740 C.2     
  16 C16           -2.8887    -1.8334    -1.2153 C.2     
  17 N17           -3.0099    -1.7505     0.1178 N.2     
  18 C18           -1.9892    -1.0988     0.6051 C.2     
  19 C19           -3.8561    -2.5125    -2.1502 C.3     
  20 C20           -0.9512     2.8607     1.7437 C.3     
  21 O21           -1.0646     1.6372     1.0140 O.3     
  22 C22            8.2653     2.6355     1.1740 C.3     
  23 C23            8.7599     3.1626    -0.1779 C.3     
  24 N24            7.6337     3.7260    -0.9262 N.pl3   
  25 N25            6.3580     3.1553    -0.8363 N.2     
  26 C26            7.9176     3.7951     2.0715 C.ar    
  27 N27            6.6726     4.2266     2.1250 N.ar    
  28 C28            8.9063     4.3894     2.8324 C.ar    
  29 C29            8.5772     5.4553     3.6555 C.ar    
  30 C30            7.2576     5.8860     3.6823 C.ar    
  31 C31            6.3211     5.2371     2.8954 C.ar    
  32 F32            6.8912     6.9207     4.4699 F       
  33 C33            6.0377    -1.7808     1.5129 C.3     
  34 C34            5.4934    -2.8419     0.5521 C.3     
  35 C35            6.4577    -2.9889    -0.6289 C.3     
  36 C36            6.6369    -1.6264    -1.3034 C.3     
  37 O37            7.1138    -0.6800    -0.3455 O.3     
  38 H38            1.1305    -1.4077    -1.5119 H       
  39 H39            3.2371    -0.1553    -1.3407 H       
  40 H40            1.2740     2.8049     1.0708 H       
  41 H41            4.0832    -0.3153     0.9050 H       
  42 H42            4.6924    -0.4627    -0.7572 H       
  43 H43            3.6429     3.2393    -0.0142 H       
  44 H44            6.1439     0.7733     2.5165 H       
  45 H45            7.7750     0.1970     2.0927 H       
  46 H46           -1.3680    -1.0936    -2.5769 H       
  47 H47           -1.8209    -0.8802     1.6493 H       
  48 H48           -3.5698    -3.5570    -2.2735 H       
  49 H49           -4.8621    -2.4582    -1.7342 H       
  50 H50           -3.8361    -2.0134    -3.1190 H       
  51 H51           -0.2161     2.7421     2.5398 H       
  52 H52           -0.6329     3.6569     1.0708 H       
  53 H53           -1.9182     3.1162     2.1771 H       
  54 H54            9.0457     2.0329     1.6387 H       
  55 H55            9.5099     3.9362    -0.0135 H       
  56 H56            9.2012     2.3445    -0.7472 H       
  57 H57            7.7730     4.5030    -1.4900 H       
  58 H58            9.9229     4.0276     2.7866 H       
  59 H59            9.3292     5.9387     4.2614 H       
  60 H60            5.2923     5.5654     2.9095 H       
  61 H61            6.9979    -2.1084     1.9116 H       
  62 H62            5.3329    -1.6344     2.3314 H       
  63 H63            5.4069    -3.7955     1.0731 H       
  64 H64            4.5135    -2.5345     0.1867 H       
  65 H65            7.4223    -3.3470    -0.2692 H       
  66 H66            6.0487    -3.6998    -1.3468 H       
  67 H67            7.3577    -1.7153    -2.1162 H       
  68 H68            5.6799    -1.2894    -1.7017 H       
@<TRIPOS>BOND
   1    1    2 ar
   2    1    6 ar
   3    1   21 1
   4    2    3 ar
   5    2   14 1
   6    3    4 ar
   7    3   38 1
   8    4    5 ar
   9    4   39 1
  10    5    6 ar
  11    5    9 1
  12    6   40 1
  13    7    8 1
  14    7   10 1
  15    7   41 1
  16    7   42 1
  17    8    9 2
  18    8   13 1
  19    9   43 1
  20   10   11 1
  21   10   33 1
  22   10   37 1
  23   11   12 1
  24   11   44 1
  25   11   45 1
  26   12   13 1
  27   12   22 1
  28   13   25 2
  29   14   15 1
  30   14   18 1
  31   15   16 2
  32   15   46 1
  33   16   17 1
  34   16   19 1
  35   17   18 2
  36   18   47 1
  37   19   48 1
  38   19   49 1
  39   19   50 1
  40   20   21 1
  41   20   51 1
  42   20   52 1
  43   20   53 1
  44   22   23 1
  45   22   26 1
  46   22   54 1
  47   23   24 1
  48   23   55 1
  49   23   56 1
  50   24   25 1
  51   24   57 1
  52   26   27 ar
  53   26   28 ar
  54   27   31 ar
  55   28   29 ar
  56   28   58 1
  57   29   30 ar
  58   29   59 1
  59   30   31 ar
  60   30   32 1
  61   31   60 1
  62   33   34 1
  63   33   61 1
  64   33   62 1
  65   34   35 1
  66   34   63 1
  67   34   64 1
  68   35   36 1
  69   35   65 1
  70   35   66 1
  71   36   37 1
  72   36   67 1
  73   36   68 1

#	End of record

