#	Name: ASD03910060
#	Creating user name:	WinNT
#	Creation time:	15. 06. 2019 20:47

#	Modifying user name:	WinNT
#	Modification time:	15. 06. 2019 20:47

#	Program:	/corina/corina34_cracker 3.40 0067  02.08.2006

@<TRIPOS>MOLECULE
ASD03910060
  63   65    0    0    0
SMALL
NO_CHARGES


@<TRIPOS>ATOM
   1 C1             0.5308     1.3796     0.1677 C.ar    
   2 C2             0.7202     0.1901     0.8470 C.ar    
   3 C3            -0.3400    -0.4150     1.4965 C.ar    
   4 C4            -1.5922     0.1671     1.4682 C.ar    
   5 C5            -1.7857     1.3616     0.7869 C.ar    
   6 C6            -0.7175     1.9699     0.1408 C.ar    
   7 N7            -3.0530     1.9539     0.7563 N.am    
   8 C8            -3.1693     3.2967     0.7493 C.2     
   9 O9            -2.1822     3.9915     0.8673 O.2     
  10 C10           -4.3812     5.4345     0.6190 C.ar    
  11 C11           -4.1767     6.1272    -0.5601 C.ar    
  12 C12           -4.0495     7.5026    -0.5413 C.ar    
  13 C13           -4.1270     8.1889     0.6619 C.ar    
  14 C14           -4.3322     7.4916     1.8435 C.ar    
  15 C15           -4.4587     6.1162     1.8194 C.ar    
  16 O16           -4.0017     9.5420     0.6830 O.3     
  17 C17           -4.2060    10.1929     1.9386 C.3     
  18 C18           -5.5760     9.8640     2.4733 C.2     
  19 C19            1.6891     2.0356    -0.5387 C.3     
  20 C20           -0.1291    -1.7113     2.2356 C.3     
  21 O21           -5.7485     9.7465     3.6680 O.2     
  22 N22           -6.6095     9.7005     1.6239 N.am    
  23 C23           -4.5258     3.9347     0.5949 C.3     
  24 C24           -7.9157     9.2751     2.1329 C.3     
  25 C25           -8.9971     9.7390     1.1914 C.2     
  26 O26           -8.7065    10.3612     0.1972 O.2     
  27 O27          -10.2831     9.4611     1.4572 O.3     
  28 C28           -7.9502     7.7490     2.2368 C.3     
  29 C29           -3.1278     9.7503     2.9433 C.3     
  30 C30           -2.3587    11.0231     3.3536 C.3     
  31 C31           -3.3569    12.1752     3.0790 C.3     
  32 C32           -4.0557    11.7193     1.7731 C.3     
  33 O33           -7.8503     7.1802     0.9297 O.3     
  34 H34            1.6983    -0.2674     0.8701 H       
  35 H35           -2.4200    -0.3064     1.9751 H       
  36 H36           -0.8647     2.8991    -0.3896 H       
  37 H37           -3.8478     1.3982     0.7401 H       
  38 H38           -4.1161     5.5924    -1.4964 H       
  39 H39           -3.8895     8.0432    -1.4625 H       
  40 H40           -4.3925     8.0236     2.7815 H       
  41 H41           -4.6185     5.5729     2.7391 H       
  42 H42            1.7437     1.6697    -1.5640 H       
  43 H43            1.5456     3.1161    -0.5457 H       
  44 H44            2.6158     1.7955    -0.0174 H       
  45 H45            0.1464    -1.4998     3.2688 H       
  46 H46           -1.0501    -2.2940     2.2172 H       
  47 H47            0.6689    -2.2776     1.7555 H       
  48 H48           -6.4885     9.8644     0.6755 H       
  49 H49           -4.9661     3.6273    -0.3537 H       
  50 H50           -5.1713     3.6187     1.4144 H       
  51 H51           -8.0809     9.7102     3.1185 H       
  52 H52          -10.9410     9.7795     0.8241 H       
  53 H53           -7.1139     7.4074     2.8467 H       
  54 H54           -8.8874     7.4373     2.6980 H       
  55 H55           -3.5955     9.2984     3.8180 H       
  56 H56           -2.4487     9.0390     2.4731 H       
  57 H57           -2.0989    10.9875     4.4115 H       
  58 H58           -1.4631    11.1409     2.7436 H       
  59 H59           -4.0780    12.2634     3.8917 H       
  60 H60           -2.8284    13.1161     2.9263 H       
  61 H61           -3.4343    11.9493     0.9076 H       
  62 H62           -5.0333    12.1920     1.6786 H       
  63 H63           -7.8658     6.2133     0.9193 H       
@<TRIPOS>BOND
   1    1    2 ar
   2    1   19 1
   3    1    6 ar
   4    2    3 ar
   5    2   34 1
   6    3    4 ar
   7    3   20 1
   8    4    5 ar
   9    4   35 1
  10    5    6 ar
  11    5    7 1
  12    6   36 1
  13    7    8 am
  14    7   37 1
  15    8    9 2
  16    8   23 1
  17   10   11 ar
  18   10   15 ar
  19   10   23 1
  20   11   12 ar
  21   11   38 1
  22   12   13 ar
  23   12   39 1
  24   13   14 ar
  25   13   16 1
  26   14   15 ar
  27   14   40 1
  28   15   41 1
  29   16   17 1
  30   17   18 1
  31   17   29 1
  32   17   32 1
  33   18   21 2
  34   18   22 am
  35   19   42 1
  36   19   43 1
  37   19   44 1
  38   20   45 1
  39   20   46 1
  40   20   47 1
  41   22   24 1
  42   22   48 1
  43   23   49 1
  44   23   50 1
  45   24   25 1
  46   24   28 1
  47   24   51 1
  48   25   26 2
  49   25   27 1
  50   27   52 1
  51   28   33 1
  52   28   53 1
  53   28   54 1
  54   29   30 1
  55   29   55 1
  56   29   56 1
  57   30   31 1
  58   30   57 1
  59   30   58 1
  60   31   32 1
  61   31   59 1
  62   31   60 1
  63   32   61 1
  64   32   62 1
  65   33   63 1

#	End of record

