#	Name: ASD02508434
#	Creating user name:	WinNT
#	Creation time:	15. 06. 2019 20:24

#	Modifying user name:	WinNT
#	Modification time:	15. 06. 2019 20:24

#	Program:	/corina/corina34_cracker 3.40 0067  02.08.2006

@<TRIPOS>MOLECULE
ASD02508434
  36   38    0    0    0
SMALL
NO_CHARGES


@<TRIPOS>ATOM
   1 C1             0.1128     1.4028     0.4413 C.2     
   2 C2             0.1194     0.0049     0.4665 C.2     
   3 C3             1.3536    -0.4143     0.0730 C.2     
   4 N4             2.0964     0.6961    -0.1906 N.pl3   
   5 N5             1.2907     1.8165     0.0498 N.2     
   6 C6             3.4253     0.7146    -0.6235 C.ar    
   7 C7             4.0583     1.9316    -0.8534 C.ar    
   8 N8             4.0713    -0.4255    -0.8057 N.ar    
   9 C9             5.3256    -0.4532    -1.2132 C.ar    
  10 C10            6.0146     0.7167    -1.4657 C.ar    
  11 C11            5.3752     1.9350    -1.2821 C.ar    
  12 N12            1.7779    -1.7346    -0.0388 N.am    
  13 S13            0.6851    -2.9705     0.1049 S.o2    
  14 C14           -0.4222    -2.8490    -1.2603 C.ar    
  15 C15           -0.0807    -3.4060    -2.4786 C.ar    
  16 C16           -0.9489    -3.3110    -3.5498 C.ar    
  17 C17           -2.1600    -2.6584    -3.4026 C.ar    
  18 C18           -2.5012    -2.1012    -2.1831 C.ar    
  19 C19           -1.6346    -2.2018    -1.1110 C.ar    
  20 Cl20           3.2092     3.4255    -0.6068 Cl      
  21 O21            1.4159    -4.1755    -0.0772 O.2     
  22 O22           -0.0815    -2.6949     1.2692 O.2     
  23 Cl23          -3.2507    -2.5383    -4.7478 Cl      
  24 C24            7.4474     0.6713    -1.9304 C.3     
  25 F25            7.8624    -0.6608    -2.0329 F       
  26 F26            7.5519     1.2898    -3.1809 F       
  27 F27            8.2580     1.3427    -1.0088 F       
  28 H28           -0.7248     2.0346     0.6974 H       
  29 H29           -0.7076    -0.6298     0.7487 H       
  30 H30            5.8203    -1.4033    -1.3509 H       
  31 H31            5.8916     2.8641    -1.4729 H       
  32 H32            2.7138    -1.9311    -0.2010 H       
  33 H33            0.8648    -3.9151    -2.5934 H       
  34 H34           -0.6819    -3.7459    -4.5016 H       
  35 H35           -3.4464    -1.5917    -2.0676 H       
  36 H36           -1.9008    -1.7669    -0.1590 H       
@<TRIPOS>BOND
   1    1    2 1
   2    1    5 2
   3    1   28 1
   4    2    3 2
   5    2   29 1
   6    3    4 1
   7    3   12 1
   8    4    5 1
   9    4    6 1
  10    6    7 ar
  11    6    8 ar
  12    7   20 1
  13    7   11 ar
  14    8    9 ar
  15    9   10 ar
  16    9   30 1
  17   10   11 ar
  18   10   24 1
  19   11   31 1
  20   12   13 am
  21   12   32 1
  22   13   14 1
  23   13   21 2
  24   13   22 2
  25   14   15 ar
  26   14   19 ar
  27   15   16 ar
  28   15   33 1
  29   16   17 ar
  30   16   34 1
  31   17   18 ar
  32   17   23 1
  33   18   19 ar
  34   18   35 1
  35   19   36 1
  36   24   25 1
  37   24   26 1
  38   24   27 1

#	End of record

