#	Name: ASD01914457
#	Creating user name:	WinNT
#	Creation time:	15. 06. 2019 20:03

#	Modifying user name:	WinNT
#	Modification time:	15. 06. 2019 20:03

#	Program:	/corina/corina34_cracker 3.40 0067  02.08.2006

@<TRIPOS>MOLECULE
ASD01914457
  14   14    0    0    0
SMALL
NO_CHARGES


@<TRIPOS>ATOM
   1 C1            -0.0159     1.3220     0.0093 C.ar    
   2 N2             0.0021    -0.0041     0.0020 N.ar    
   3 C3             1.1464    -0.6639    -0.0124 C.ar    
   4 C4             2.3381     0.0477    -0.0200 C.ar    
   5 C5             2.2825     1.4341    -0.0120 C.ar    
   6 N6             1.1041     2.0317     0.0024 N.ar    
   7 C7            -1.2752     2.0038     0.0189 C.1     
   8 N8            -2.2741     2.5447     0.0265 N.1     
   9 C9             1.1579    -2.1709    -0.0201 C.3     
  10 F10           -0.1535    -2.6467    -0.1248 F       
  11 F11            1.9074    -2.6259    -1.1102 F       
  12 F12            1.7305    -2.6389     1.1674 F       
  13 H13            3.2878    -0.4664    -0.0314 H       
  14 H14            3.1913     2.0176    -0.0172 H       
@<TRIPOS>BOND
   1    1    2 ar
   2    1    6 ar
   3    1    7 1
   4    2    3 ar
   5    3    4 ar
   6    3    9 1
   7    4    5 ar
   8    4   13 1
   9    5    6 ar
  10    5   14 1
  11    7    8 3
  12    9   10 1
  13    9   11 1
  14    9   12 1

#	End of record

