#	Name: ASD01230379
#	Creating user name:	WinNT
#	Creation time:	15. 06. 2019 19:14

#	Modifying user name:	WinNT
#	Modification time:	15. 06. 2019 19:14

#	Program:	/corina/corina34_cracker 3.40 0067  02.08.2006

@<TRIPOS>MOLECULE
ASD01230379
  47   50    0    0    0
SMALL
NO_CHARGES


@<TRIPOS>ATOM
   1 S1             0.0796     1.7749     1.3208 S.o2    
   2 N2            -0.1047     0.2590     0.6835 N.am    
   3 C3             0.6428    -0.1824    -0.2989 C.2     
   4 N4             1.6408     0.5190    -0.9133 N.pl3   
   5 C5             1.9774     1.9098    -0.5980 C.3     
   6 C6             1.8041     2.1794     0.8995 C.3     
   7 C7             0.3593    -1.5587    -0.7586 C.2     
   8 C8             1.1313    -2.1034    -1.7616 C.2     
   9 C9             2.1622    -1.3346    -2.3191 C.2     
  10 C10            2.3908    -0.0799    -1.8948 C.2     
  11 C11           -0.7395    -2.3417    -0.1488 C.ar    
  12 C12           -0.4542    -3.4970     0.5799 C.ar    
  13 C13           -1.4799    -4.2236     1.1463 C.ar    
  14 C14           -2.7957    -3.8069     0.9923 C.ar    
  15 C15           -3.0833    -2.6577     0.2678 C.ar    
  16 C16           -2.0623    -1.9229    -0.2965 C.ar    
  17 O17           -3.8041    -4.5257     1.5515 O.3     
  18 C18           -4.3858    -5.4985     0.8021 C.ar    
  19 C19           -3.8777    -5.8073    -0.4519 C.ar    
  20 C20           -4.4709    -6.7965    -1.2116 C.ar    
  21 C21           -5.5703    -7.4790    -0.7237 C.ar    
  22 C22           -6.0784    -7.1734     0.5252 C.ar    
  23 C23           -5.4853    -6.1888     1.2916 C.ar    
  24 C24           -3.9201    -7.1319    -2.5736 C.3     
  25 C25           -2.8597    -8.2267    -2.4394 C.3     
  26 F26           -4.9563    -7.5849    -3.3971 F       
  27 F27           -3.3420    -5.9894    -3.1372 F       
  28 O28           -0.8236     2.5857     0.5817 O.2     
  29 O29           -0.0682     1.5940     2.7224 O.2     
  30 H30            3.0125     2.1020    -0.8804 H       
  31 H31            1.3224     2.5747    -1.1611 H       
  32 H32            2.0021     3.2298     1.1132 H       
  33 H33            2.4841     1.5484     1.4718 H       
  34 H34            0.9450    -3.1077    -2.1126 H       
  35 H35            2.7801    -1.7553    -3.0985 H       
  36 H36            3.1977     0.4798    -2.3442 H       
  37 H37            0.5688    -3.8218     0.6997 H       
  38 H38           -1.2599    -5.1181     1.7101 H       
  39 H39           -4.1078    -2.3368     0.1498 H       
  40 H40           -2.2864    -1.0265    -0.8558 H       
  41 H41           -3.0194    -5.2743    -0.8335 H       
  42 H42           -6.0329    -8.2520    -1.3195 H       
  43 H43           -6.9370    -7.7080     0.9039 H       
  44 H44           -5.8799    -5.9535     2.2690 H       
  45 H45           -3.3101    -9.1169    -2.0003 H       
  46 H46           -2.4613    -8.4693    -3.4245 H       
  47 H47           -2.0523    -7.8737    -1.7978 H       
@<TRIPOS>BOND
   1    1    2 am
   2    1    6 1
   3    1   28 2
   4    1   29 2
   5    2    3 2
   6    3    4 1
   7    3    7 1
   8    4    5 1
   9    4   10 1
  10    5    6 1
  11    5   30 1
  12    5   31 1
  13    6   32 1
  14    6   33 1
  15    7    8 2
  16    7   11 1
  17    8    9 1
  18    8   34 1
  19    9   10 2
  20    9   35 1
  21   10   36 1
  22   11   12 ar
  23   11   16 ar
  24   12   13 ar
  25   12   37 1
  26   13   14 ar
  27   13   38 1
  28   14   15 ar
  29   14   17 1
  30   15   16 ar
  31   15   39 1
  32   16   40 1
  33   17   18 1
  34   18   19 ar
  35   18   23 ar
  36   19   20 ar
  37   19   41 1
  38   20   21 ar
  39   20   24 1
  40   21   22 ar
  41   21   42 1
  42   22   23 ar
  43   22   43 1
  44   23   44 1
  45   24   25 1
  46   24   26 1
  47   24   27 1
  48   25   45 1
  49   25   46 1
  50   25   47 1

#	End of record

