#	Name: ASD01882263
#	Creating user name:	WinNT
#	Creation time:	15. 06. 2019 19:44

#	Modifying user name:	WinNT
#	Modification time:	15. 06. 2019 19:44

#	Program:	/corina/corina34_cracker 3.40 0067  02.08.2006

@<TRIPOS>MOLECULE
ASD01882263
  49   51    0    0    0
SMALL
NO_CHARGES


@<TRIPOS>ATOM
   1 C1            -0.0187     1.5258     0.0104 C.3     
   2 C2             0.0021    -0.0041     0.0020 C.3     
   3 C3             0.7182    -0.4975    -1.2568 C.3     
   4 C4             2.1536     0.0321    -1.2676 C.3     
   5 C5             2.1328     1.5619    -1.2592 C.3     
   6 C6             1.4167     2.0553    -0.0004 C.3     
   7 O7            -0.7098     1.9991    -1.1473 O.3     
   8 C8             2.8936    -0.4747    -0.0281 C.3     
   9 C9             2.8697    -0.4613    -2.5264 C.3     
  10 C10           -0.7240     2.0118     1.2503 C.ar    
  11 C11           -1.4119     3.2110     1.2278 C.ar    
  12 C12           -2.0593     3.6587     2.3630 C.ar    
  13 C13           -2.0189     2.9039     3.5264 C.ar    
  14 C14           -1.3281     1.7010     3.5464 C.ar    
  15 C15           -0.6870     1.2550     2.4069 C.ar    
  16 O16           -2.6546     3.3424     4.6446 O.3     
  17 C17           -2.5706     2.5137     5.8058 C.3     
  18 C18           -3.3296     3.1567     6.9378 C.ar    
  19 C19           -4.6711     2.8760     7.1180 C.ar    
  20 C20           -5.3673     3.4658     8.1564 C.ar    
  21 C21           -4.7219     4.3361     9.0148 C.ar    
  22 C22           -3.3802     4.6162     8.8352 C.ar    
  23 C23           -2.6829     4.0230     7.7994 C.ar    
  24 H24            0.5293    -0.3651     0.8851 H       
  25 H25           -1.0205    -0.3814     0.0098 H       
  26 H26            0.7330    -1.5874    -1.2628 H       
  27 H27            0.1910    -0.1364    -2.1398 H       
  28 H28            3.1554     1.9392    -1.2670 H       
  29 H29            1.6057     1.9230    -2.1423 H       
  30 H30            1.4019     3.1452     0.0056 H       
  31 H31            1.9439     1.6943     0.8826 H       
  32 H32           -0.7617     2.9629    -1.2077 H       
  33 H33            2.9084    -1.5646    -0.0341 H       
  34 H34            3.9162    -0.0975    -0.0359 H       
  35 H35            2.3834    -0.1232     0.8687 H       
  36 H36            2.3426    -0.1002    -3.4095 H       
  37 H37            3.8923    -0.0840    -2.5342 H       
  38 H38            2.8845    -1.5512    -2.5324 H       
  39 H39           -1.4427     3.7984     0.3220 H       
  40 H40           -2.5961     4.5956     2.3450 H       
  41 H41           -1.2951     1.1117     4.4508 H       
  42 H42           -0.1531     0.3163     2.4206 H       
  43 H43           -3.0026     1.5371     5.5872 H       
  44 H44           -1.5256     2.3931     6.0912 H       
  45 H45           -5.1753     2.1960     6.4473 H       
  46 H46           -6.4155     3.2470     8.2967 H       
  47 H47           -5.2660     4.7975     9.8257 H       
  48 H48           -2.8760     5.2964     9.5057 H       
  49 H49           -1.6338     4.2389     7.6613 H       
@<TRIPOS>BOND
   1    1    2 1
   2    1    6 1
   3    1    7 1
   4    1   10 1
   5    2    3 1
   6    2   24 1
   7    2   25 1
   8    3    4 1
   9    3   26 1
  10    3   27 1
  11    4    5 1
  12    4    8 1
  13    4    9 1
  14    5    6 1
  15    5   28 1
  16    5   29 1
  17    6   30 1
  18    6   31 1
  19    7   32 1
  20    8   33 1
  21    8   34 1
  22    8   35 1
  23    9   36 1
  24    9   37 1
  25    9   38 1
  26   10   11 ar
  27   10   15 ar
  28   11   12 ar
  29   11   39 1
  30   12   13 ar
  31   12   40 1
  32   13   14 ar
  33   13   16 1
  34   14   15 ar
  35   14   41 1
  36   15   42 1
  37   16   17 1
  38   17   18 1
  39   17   43 1
  40   17   44 1
  41   18   19 ar
  42   18   23 ar
  43   19   20 ar
  44   19   45 1
  45   20   21 ar
  46   20   46 1
  47   21   22 ar
  48   21   47 1
  49   22   23 ar
  50   22   48 1
  51   23   49 1

#	End of record

