#	Name: ASD01230567
#	Creating user name:	WinNT
#	Creation time:	15. 06. 2019 19:14

#	Modifying user name:	WinNT
#	Modification time:	15. 06. 2019 19:14

#	Program:	/corina/corina34_cracker 3.40 0067  02.08.2006

@<TRIPOS>MOLECULE
ASD01230567
  40   43    0    0    0
SMALL
NO_CHARGES


@<TRIPOS>ATOM
   1 S1            -0.4311     1.7089    -0.5923 S.o2    
   2 N2            -0.6132     0.0884    -0.8728 N.am    
   3 C3            -0.0005    -0.5244    -1.8560 C.2     
   4 N4             0.8429     0.0644    -2.7551 N.pl3   
   5 C5             1.1335     1.5002    -2.7855 C.3     
   6 C6             1.1773     2.0708    -1.3652 C.3     
   7 C7            -0.2620    -1.9748    -1.9766 C.2     
   8 C8             0.3793    -2.6924    -2.9644 C.2     
   9 C9             1.2583    -2.0244    -3.8266 C.2     
  10 C10            1.4684    -0.7018    -3.7057 C.2     
  11 C11           -1.1987    -2.6471    -1.0499 C.ar    
  12 C12           -1.4339    -4.0171    -1.1780 C.ar    
  13 C13           -2.3112    -4.6332    -0.3060 C.ar    
  14 C14           -2.9299    -3.8579     0.6727 C.ar    
  15 C15           -2.6489    -2.5009     0.7419 C.ar    
  16 N16           -1.8036    -1.9427    -0.1005 N.ar    
  17 O17           -3.7996    -4.4248     1.5497 O.3     
  18 C18           -3.9584    -5.7736     1.5089 C.ar    
  19 C19           -3.1342    -6.5938     2.2662 C.ar    
  20 C20           -3.2978    -7.9647     2.2228 C.ar    
  21 C21           -4.2815    -8.5200     1.4253 C.ar    
  22 C22           -5.1042    -7.7050     0.6697 C.ar    
  23 C23           -4.9489    -6.3331     0.7142 C.ar    
  24 O24           -1.4887     2.3187    -1.3195 O.2     
  25 O25           -0.3475     1.8199     0.8219 O.2     
  26 H26            2.0977     1.6616    -3.2676 H       
  27 H27            0.3576     2.0121    -3.3548 H       
  28 H28            1.3374     3.1483    -1.4025 H       
  29 H29            1.9773     1.5948    -0.7982 H       
  30 H30            0.2067    -3.7531    -3.0713 H       
  31 H31            1.7736    -2.5784    -4.5973 H       
  32 H32            2.1575    -0.2228    -4.3855 H       
  33 H33           -0.9372    -4.5878    -1.9487 H       
  34 H34           -2.5129    -5.6916    -0.3814 H       
  35 H35           -3.1261    -1.8954     1.4983 H       
  36 H36           -2.3652    -6.1607     2.8887 H       
  37 H37           -2.6566    -8.6035     2.8120 H       
  38 H38           -4.4073    -9.5921     1.3923 H       
  39 H39           -5.8718    -8.1412     0.0477 H       
  40 H40           -5.5946    -5.6967     0.1273 H       
@<TRIPOS>BOND
   1    1    2 am
   2    1    6 1
   3    1   24 2
   4    1   25 2
   5    2    3 2
   6    3    4 1
   7    3    7 1
   8    4    5 1
   9    4   10 1
  10    5    6 1
  11    5   26 1
  12    5   27 1
  13    6   28 1
  14    6   29 1
  15    7    8 2
  16    7   11 1
  17    8    9 1
  18    8   30 1
  19    9   10 2
  20    9   31 1
  21   10   32 1
  22   11   12 ar
  23   11   16 ar
  24   12   13 ar
  25   12   33 1
  26   13   14 ar
  27   13   34 1
  28   14   15 ar
  29   14   17 1
  30   15   16 ar
  31   15   35 1
  32   17   18 1
  33   18   19 ar
  34   18   23 ar
  35   19   20 ar
  36   19   36 1
  37   20   21 ar
  38   20   37 1
  39   21   22 ar
  40   21   38 1
  41   22   23 ar
  42   22   39 1
  43   23   40 1

#	End of record

