#	Name: ASD00190050
#	Creating user name:	WinNT
#	Creation time:	15. 06. 2019 18:33

#	Modifying user name:	WinNT
#	Modification time:	15. 06. 2019 18:33

#	Program:	/corina/corina34_cracker 3.40 0067  02.08.2006

@<TRIPOS>MOLECULE
ASD00190050
  60   65    0    0    0
SMALL
NO_CHARGES


@<TRIPOS>ATOM
   1 C1            -0.0154     1.3889     0.0329 C.ar    
   2 C2             0.0026    -0.0011     0.0114 C.ar    
   3 C3             1.1801    -0.6877    -0.0102 C.ar    
   4 C4             2.3964     0.0123    -0.0114 C.ar    
   5 C5             2.3718     1.4268     0.0100 C.ar    
   6 C6             1.1497     2.1010     0.0324 C.ar    
   7 N7             3.5674    -0.6415    -0.0320 N.ar    
   8 C8             4.7273    -0.0214    -0.0334 C.ar    
   9 C9             4.8189     1.3796    -0.0128 C.ar    
  10 C10            3.6478     2.1440     0.0085 C.ar    
  11 N11            5.8587     2.2833    -0.0080 N.pl3   
  12 C12            5.3154     3.5207     0.0160 C.2     
  13 N13            4.0133     3.4342     0.0255 N.2     
  14 N14            5.8931    -0.7726    -0.0555 N.pl3   
  15 C15            5.8289    -2.1658     0.0437 C.ar    
  16 C16            6.7405    -2.9549    -0.6458 C.ar    
  17 C17            6.6753    -4.3311    -0.5465 C.ar    
  18 C18            5.7028    -4.9243     0.2385 C.ar    
  19 C19            4.7921    -4.1402     0.9275 C.ar    
  20 C20            4.8569    -2.7628     0.8364 C.ar    
  21 Cl21           3.5728    -4.8881     1.9112 Cl      
  22 Cl22           5.6233    -6.6542     0.3599 Cl      
  23 C23            6.0973     4.8089     0.0299 C.3     
  24 C24            6.4822     5.1584     1.4702 C.3     
  25 C25            7.3274     6.4342     1.4719 C.3     
  26 N26            8.5336     6.2249     0.6610 N.3     
  27 C27            8.1899     5.9345    -0.7369 C.3     
  28 C28            7.3705     4.6438    -0.8046 C.3     
  29 C29            9.4363     7.3803     0.7521 C.3     
  30 C30           10.7585     7.0361     0.1161 C.ar    
  31 C31           10.9614     7.2767    -1.2300 C.ar    
  32 C32           12.1742     6.9610    -1.8133 C.ar    
  33 C33           13.1842     6.4052    -1.0505 C.ar    
  34 C34           12.9816     6.1655     0.2957 C.ar    
  35 C35           11.7703     6.4852     0.8800 C.ar    
  36 H36           -0.9608     1.9110     0.0457 H       
  37 H37           -0.9304    -0.5451     0.0122 H       
  38 H38            1.1769    -1.7676    -0.0261 H       
  39 H39            1.1258     3.1806     0.0492 H       
  40 H40            6.8051     2.0709    -0.0195 H       
  41 H41            6.7528    -0.3315    -0.1396 H       
  42 H42            7.4996    -2.4928    -1.2595 H       
  43 H43            7.3841    -4.9448    -1.0826 H       
  44 H44            4.1469    -2.1514     1.3735 H       
  45 H45            5.4876     5.6096    -0.3887 H       
  46 H46            5.5794     5.3192     2.0593 H       
  47 H47            7.0581     4.3398     1.9018 H       
  48 H48            6.7461     7.2555     1.0529 H       
  49 H49            7.6151     6.6778     2.4946 H       
  50 H50            7.6045     6.7582    -1.1456 H       
  51 H51            9.1041     5.8153    -1.3184 H       
  52 H52            7.9603     3.8171    -0.4088 H       
  53 H53            7.1022     4.4370    -1.8406 H       
  54 H54            8.9930     8.2295     0.2320 H       
  55 H55            9.5929     7.6372     1.7997 H       
  56 H56           10.1723     7.7109    -1.8259 H       
  57 H57           12.3325     7.1482    -2.8651 H       
  58 H58           14.1315     6.1579    -1.5065 H       
  59 H59           13.7706     5.7309     0.8916 H       
  60 H60           11.6120     6.2980     1.9318 H       
@<TRIPOS>BOND
   1    1    2 ar
   2    1    6 ar
   3    1   36 1
   4    2    3 ar
   5    2   37 1
   6    3    4 ar
   7    3   38 1
   8    4    5 ar
   9    4    7 ar
  10    5    6 ar
  11    5   10 ar
  12    6   39 1
  13    7    8 ar
  14    8    9 ar
  15    8   14 1
  16    9   10 ar
  17    9   11 1
  18   10   13 1
  19   11   12 1
  20   11   40 1
  21   12   13 2
  22   12   23 1
  23   14   15 1
  24   14   41 1
  25   15   16 ar
  26   15   20 ar
  27   16   17 ar
  28   16   42 1
  29   17   18 ar
  30   17   43 1
  31   18   19 ar
  32   18   22 1
  33   19   20 ar
  34   19   21 1
  35   20   44 1
  36   23   24 1
  37   23   28 1
  38   23   45 1
  39   24   25 1
  40   24   46 1
  41   24   47 1
  42   25   26 1
  43   25   48 1
  44   25   49 1
  45   26   27 1
  46   26   29 1
  47   27   28 1
  48   27   50 1
  49   27   51 1
  50   28   52 1
  51   28   53 1
  52   29   30 1
  53   29   54 1
  54   29   55 1
  55   30   31 ar
  56   30   35 ar
  57   31   32 ar
  58   31   56 1
  59   32   33 ar
  60   32   57 1
  61   33   34 ar
  62   33   58 1
  63   34   35 ar
  64   34   59 1
  65   35   60 1

#	End of record

