#	Name: ASD01478012
#	Creating user name:	WinNT
#	Creation time:	15. 06. 2019 19:21

#	Modifying user name:	WinNT
#	Modification time:	15. 06. 2019 19:21

#	Program:	/corina/corina34_cracker 3.40 0067  02.08.2006

@<TRIPOS>MOLECULE
ASD01478012
  79   81    0    0    0
SMALL
NO_CHARGES


@<TRIPOS>ATOM
   1 C1            -0.5113     1.5143    -1.8903 C.3     
   2 C2             1.6292     2.2302    -2.6661 C.2     
   3 O3             0.7795     2.1248    -1.6270 O.3     
   4 N4             2.8438     2.7871    -2.4896 N.am    
   5 O5             1.3010     1.8232    -3.7630 O.2     
   6 C6             3.4589     4.1786    -4.4045 C.3     
   7 C7             3.7683     2.9018    -3.6203 C.3     
   8 C8             5.2059     2.9587    -3.0998 C.3     
   9 C9             6.1769     2.9527    -4.2821 C.3     
  10 N10            7.5525     2.8750    -3.7840 N.am    
  11 S11            8.5927     4.1410    -4.0237 S.o2    
  12 C12            8.4300     5.2191    -2.6395 C.ar    
  13 C13            9.2307     5.0391    -1.5267 C.ar    
  14 C14            9.1051     5.8830    -0.4402 C.ar    
  15 C15            8.1746     6.9116    -0.4662 C.ar    
  16 C16            7.3724     7.0901    -1.5839 C.ar    
  17 C17            7.5058     6.2470    -2.6702 C.ar    
  18 O18            9.9050     3.5999    -3.9588 O.2     
  19 O19            8.1016     4.8562    -5.1492 O.2     
  20 C20            8.0077     1.6773    -3.0737 C.3     
  21 C21            8.0482     0.4941    -4.0429 C.3     
  22 C22            9.0725     0.7723    -5.1448 C.3     
  23 C23            8.4469    -0.7732    -3.2841 C.3     
  24 O24            5.3899     4.1538    -2.3383 O.3     
  25 C25           -0.4086     0.0238    -1.6665 C.3     
  26 O26           -1.2606    -0.6153    -2.6266 O.3     
  27 C27           -2.5867    -0.7285    -2.3314 C.3     
  28 C28           -3.2415     0.6631    -2.1706 C.3     
  29 C29           -2.8202     1.2610    -0.8498 C.3     
  30 C30           -1.5631     2.1453    -0.9679 C.3     
  31 O31           -0.9960     2.3253     0.3313 O.3     
  32 C32            2.0877     4.0701    -5.0202 C.ar    
  33 C33            0.9791     4.5077    -4.3199 C.ar    
  34 C34           -0.2787     4.4082    -4.8847 C.ar    
  35 C35           -0.4279     3.8715    -6.1498 C.ar    
  36 C36            0.6808     3.4347    -6.8504 C.ar    
  37 C37            1.9391     3.5382    -6.2875 C.ar    
  38 O38            8.0488     7.7428     0.6016 O.3     
  39 C39            7.0703     8.7797     0.5048 C.3     
  40 H40           -0.7894     1.7012    -2.9276 H       
  41 H41            3.1058     3.1120    -1.6140 H       
  42 H42            3.4880     5.0349    -3.7308 H       
  43 H43            4.2013     4.3103    -5.1917 H       
  44 H44            3.6523     2.0370    -4.2736 H       
  45 H45            5.3980     2.0918    -2.4675 H       
  46 H46            5.9712     2.0909    -4.9170 H       
  47 H47            6.0511     3.8681    -4.8603 H       
  48 H48            9.9547     4.2380    -1.5068 H       
  49 H49            9.7305     5.7418     0.4289 H       
  50 H50            6.6473     7.8901    -1.6066 H       
  51 H51            6.8815     6.3855    -3.5405 H       
  52 H52            9.0054     1.8512    -2.6707 H       
  53 H53            7.3199     1.4553    -2.2578 H       
  54 H54            7.0632     0.3559    -4.4888 H       
  55 H55           10.0574     0.9105    -4.6989 H       
  56 H56            9.1013    -0.0706    -5.8353 H       
  57 H57            8.7884     1.6752    -5.6854 H       
  58 H58            7.7172    -0.9714    -2.4990 H       
  59 H59            8.4757    -1.6162    -3.9746 H       
  60 H60            9.4318    -0.6350    -2.8382 H       
  61 H61            5.2352     4.9667    -2.8387 H       
  62 H62            0.6215    -0.3022    -1.8107 H       
  63 H63           -0.7380    -0.2226    -0.6571 H       
  64 H64           -3.0872    -1.2686    -3.1350 H       
  65 H65           -2.6999    -1.2865    -1.4019 H       
  66 H66           -2.9192     1.3132    -2.9839 H       
  67 H67           -4.3264     0.5598    -2.1940 H       
  68 H68           -3.6396     1.8650    -0.4601 H       
  69 H69           -2.6169     0.4530    -0.1471 H       
  70 H70           -1.8490     3.1182    -1.3676 H       
  71 H71           -1.5904     2.7507     0.9645 H       
  72 H72            1.0956     4.9270    -3.3315 H       
  73 H73           -1.1450     4.7494    -4.3373 H       
  74 H74           -1.4106     3.7931    -6.5907 H       
  75 H75            0.5643     3.0151    -7.8387 H       
  76 H76            2.8057     3.2004    -6.8363 H       
  77 H77            7.3064     9.4243    -0.3419 H       
  78 H78            6.0847     8.3370     0.3606 H       
  79 H79            7.0733     9.3688     1.4219 H       
@<TRIPOS>BOND
   1    1   25 1
   2    1    3 1
   3    1   30 1
   4    1   40 1
   5    2    3 1
   6    2    4 am
   7    2    5 2
   8    4    7 1
   9    4   41 1
  10    6    7 1
  11    6   32 1
  12    6   42 1
  13    6   43 1
  14    7    8 1
  15    7   44 1
  16    8    9 1
  17    8   24 1
  18    8   45 1
  19    9   10 1
  20    9   46 1
  21    9   47 1
  22   10   11 am
  23   10   20 1
  24   11   12 1
  25   11   18 2
  26   11   19 2
  27   12   13 ar
  28   12   17 ar
  29   13   14 ar
  30   13   48 1
  31   14   15 ar
  32   14   49 1
  33   15   16 ar
  34   15   38 1
  35   16   17 ar
  36   16   50 1
  37   17   51 1
  38   20   21 1
  39   20   52 1
  40   20   53 1
  41   21   22 1
  42   21   23 1
  43   21   54 1
  44   22   55 1
  45   22   56 1
  46   22   57 1
  47   23   58 1
  48   23   59 1
  49   23   60 1
  50   24   61 1
  51   25   26 1
  52   25   62 1
  53   25   63 1
  54   26   27 1
  55   27   28 1
  56   27   64 1
  57   27   65 1
  58   28   29 1
  59   28   66 1
  60   28   67 1
  61   29   30 1
  62   29   68 1
  63   29   69 1
  64   30   31 1
  65   30   70 1
  66   31   71 1
  67   32   33 ar
  68   32   37 ar
  69   33   34 ar
  70   33   72 1
  71   34   35 ar
  72   34   73 1
  73   35   36 ar
  74   35   74 1
  75   36   37 ar
  76   36   75 1
  77   37   76 1
  78   38   39 1
  79   39   77 1
  80   39   78 1
  81   39   79 1

#	End of record

