#	Name: ASD03130020
#	Creating user name:	WinNT
#	Creation time:	15. 06. 2019 20:33

#	Modifying user name:	WinNT
#	Modification time:	15. 06. 2019 20:33

#	Program:	/corina/corina34_cracker 3.40 0067  02.08.2006

@<TRIPOS>MOLECULE
ASD03130020
  82   85    0    0    0
SMALL
NO_CHARGES


@<TRIPOS>ATOM
   1 N1            -0.0162     1.3436     0.0094 N.am    
   2 C2            -1.2947     2.0587     0.0194 C.3     
   3 C3            -1.1073     3.4310    -0.5745 C.2     
   4 O4            -0.0135     3.7775    -0.9674 O.2     
   5 C5            -1.7944     2.1902     1.4595 C.3     
   6 C6            -2.0987     0.8217     2.0125 C.ar    
   7 C7            -3.3642     0.2834     1.8607 C.ar    
   8 C8            -1.1098     0.1069     2.6647 C.ar    
   9 C9            -3.6494    -0.9688     2.3645 C.ar    
  10 C10           -1.3817    -1.1465     3.1729 C.ar    
  11 C11           -2.6579    -1.6931     3.0282 C.ar    
  12 C12            2.3352    -0.2898     3.5931 C.ar    
  13 C13            3.5762     0.3039     3.4576 C.ar    
  14 C14            4.0862     0.5598     2.1985 C.ar    
  15 C15            3.3552     0.2221     1.0749 C.ar    
  16 C16            2.1142    -0.3715     1.2104 C.ar    
  17 C17            1.6066    -0.6327     2.4694 C.ar    
  18 C18            1.3172    -0.7397    -0.0145 C.3     
  19 C19            1.0581    -2.2476    -0.0201 C.3     
  20 C20            0.0021    -0.0041     0.0020 C.2     
  21 C21            0.2490    -2.6214    -1.2637 C.3     
  22 C22           -0.0102    -4.1293    -1.2693 C.3     
  23 C23            1.3250    -4.8762    -1.2861 C.3     
  24 C24            2.1341    -4.5024    -0.0425 C.3     
  25 C25            2.3933    -2.9945    -0.0369 C.3     
  26 C26           -2.9564    -3.0356     3.5707 C.2     
  27 C27           -1.9731     5.6073    -1.2464 C.3     
  28 C28           -1.4924     6.5556    -0.1783 C.2     
  29 C29           -0.7879     8.7691     0.5573 C.3     
  30 C30           -3.3057     6.1059    -1.8089 C.3     
  31 C31           -3.7255     5.2276    -2.9593 C.ar    
  32 C32           -3.3251     5.5359    -4.2463 C.ar    
  33 C33           -3.7098     4.7306    -5.3018 C.ar    
  34 C34           -4.4951     3.6166    -5.0711 C.ar    
  35 C35           -4.8954     3.3075    -3.7838 C.ar    
  36 C36           -4.5057     4.1108    -2.7270 C.ar    
  37 N37           -2.1553     4.2733    -0.6691 N.am    
  38 N38           -1.9968    -3.7324     4.2111 N.am    
  39 N39           -1.2552     7.8473    -0.4811 N.am    
  40 O40           -1.0399    -0.6247     0.0086 O.2     
  41 O41           -4.0674    -3.5109     3.4392 O.2     
  42 O42           -1.3191     6.1563     0.9537 O.2     
  43 Br43          -5.9702     1.7841    -3.4677 Br      
  44 H44            0.8172     1.8399     0.0041 H       
  45 H45           -2.0256     1.5046    -0.5696 H       
  46 H46           -1.0257     2.6656     2.0688 H       
  47 H47           -2.6989     2.7982     1.4762 H       
  48 H48           -4.1305     0.8448     1.3469 H       
  49 H49           -0.1228     0.5309     2.7760 H       
  50 H50           -4.6378    -1.3877     2.2460 H       
  51 H51           -0.6088    -1.7037     3.6815 H       
  52 H52            1.9367    -0.4897     4.5768 H       
  53 H53            4.1472     0.5680     4.3354 H       
  54 H54            5.0556     1.0239     2.0926 H       
  55 H55            3.7535     0.4223     0.0912 H       
  56 H56            0.6371    -1.0964     2.5753 H       
  57 H57            1.8766    -0.4639    -0.9084 H       
  58 H58            0.4987    -2.5235     0.8738 H       
  59 H59           -0.7023    -2.0893    -1.2518 H       
  60 H60            0.8084    -2.3455    -2.1576 H       
  61 H61           -0.5696    -4.4051    -0.3754 H       
  62 H62           -0.5866    -4.3956    -2.1553 H       
  63 H63            1.1404    -5.9504    -1.2901 H       
  64 H64            1.8845    -4.6003    -2.1800 H       
  65 H65            1.5747    -4.7782     0.8514 H       
  66 H66            3.0854    -5.0345    -0.0544 H       
  67 H67            2.9527    -2.7186    -0.9308 H       
  68 H68            2.9697    -2.7282     0.8491 H       
  69 H69           -1.2358     5.5588    -2.0478 H       
  70 H70           -0.6523     9.7617     0.1277 H       
  71 H71           -1.5252     8.8176     1.3586 H       
  72 H72            0.1615     8.4139     0.9580 H       
  73 H73           -4.0657     6.0702    -1.0284 H       
  74 H74           -3.1915     7.1321    -2.1582 H       
  75 H75           -2.7119     6.4064    -4.4270 H       
  76 H76           -3.3972     4.9720    -6.3070 H       
  77 H77           -4.7962     2.9878    -5.8959 H       
  78 H78           -4.8150     3.8678    -1.7212 H       
  79 H79           -3.0301     3.9961    -0.3548 H       
  80 H80           -1.1102    -3.3530     4.3160 H       
  81 H81           -2.1927    -4.6132     4.5670 H       
  82 H82           -1.3938     8.1666    -1.3865 H       
@<TRIPOS>BOND
   1    1   20 am
   2    1   44 1
   3    1    2 1
   4    2   45 1
   5    2    3 1
   6    2    5 1
   7    3    4 2
   8    3   37 am
   9    5    6 1
  10    5   46 1
  11    5   47 1
  12    6    8 ar
  13    6    7 ar
  14    7    9 ar
  15    7   48 1
  16    8   10 ar
  17    8   49 1
  18    9   11 ar
  19    9   50 1
  20   10   51 1
  21   10   11 ar
  22   11   26 1
  23   12   13 ar
  24   12   52 1
  25   12   17 ar
  26   13   14 ar
  27   13   53 1
  28   14   54 1
  29   14   15 ar
  30   15   55 1
  31   15   16 ar
  32   16   17 ar
  33   16   18 1
  34   17   56 1
  35   18   19 1
  36   18   57 1
  37   18   20 1
  38   19   21 1
  39   19   58 1
  40   19   25 1
  41   20   40 2
  42   21   22 1
  43   21   59 1
  44   21   60 1
  45   22   61 1
  46   22   62 1
  47   22   23 1
  48   23   63 1
  49   23   64 1
  50   23   24 1
  51   24   65 1
  52   24   66 1
  53   24   25 1
  54   25   67 1
  55   25   68 1
  56   26   41 2
  57   26   38 am
  58   27   37 1
  59   27   69 1
  60   27   28 1
  61   27   30 1
  62   28   42 2
  63   28   39 am
  64   29   39 1
  65   29   70 1
  66   29   71 1
  67   29   72 1
  68   30   31 1
  69   30   73 1
  70   30   74 1
  71   31   36 ar
  72   31   32 ar
  73   32   33 ar
  74   32   75 1
  75   33   34 ar
  76   33   76 1
  77   34   35 ar
  78   34   77 1
  79   35   43 1
  80   35   36 ar
  81   36   78 1
  82   37   79 1
  83   38   80 1
  84   38   81 1
  85   39   82 1

#	End of record

