#	Name: ASD01200500
#	Creating user name:	WinNT
#	Creation time:	15. 06. 2019 19:09

#	Modifying user name:	WinNT
#	Modification time:	15. 06. 2019 19:09

#	Program:	/corina/corina34_cracker 3.40 0067  02.08.2006

@<TRIPOS>MOLECULE
ASD01200500
  27   28    0    0    0
SMALL
NO_CHARGES


@<TRIPOS>ATOM
   1 N1            -0.1767     1.3041    -0.4658 N.ar    
   2 C2            -0.1138     0.0035    -0.2628 C.ar    
   3 C3             1.0243    -0.7133    -0.6093 C.ar    
   4 C4             2.1017    -0.0375    -1.1764 C.ar    
   5 C5             1.9917     1.3296    -1.3720 C.ar    
   6 C6             0.8261     1.9732    -1.0007 C.ar    
   7 N7             1.0875    -2.0937    -0.3914 N.am    
   8 C8             2.2185    -2.8664    -0.9113 C.3     
   9 C9             0.1080    -2.7129     0.2969 C.2     
  10 O10           -0.7788    -2.0597     0.8133 O.2     
  11 C11            1.2348    -4.9385     0.3171 C.2     
  12 C12            0.1114    -4.1790     0.4237 C.2     
  13 C13           -1.0778    -4.9594     0.6745 C.2     
  14 C14           -0.8383    -6.2631     0.7513 C.2     
  15 S15            0.8698    -6.5914     0.5173 S.3     
  16 N16           -1.8689    -7.2962     1.0002 N.pl3   
  17 O17           -3.0330    -6.9712     1.1513 O.2     
  18 O18           -1.5527    -8.4712     1.0540 O.2     
  19 H19           -0.9556    -0.5101     0.1778 H       
  20 H20            3.0010    -0.5660    -1.4565 H       
  21 H21            2.8076     1.8863    -1.8090 H       
  22 H22            0.7351     3.0388    -1.1513 H       
  23 H23            2.9809    -2.9596    -0.1380 H       
  24 H24            1.8761    -3.8585    -1.2054 H       
  25 H25            2.6398    -2.3558    -1.7773 H       
  26 H26            2.2234    -4.5476     0.1269 H       
  27 H27           -2.0608    -4.5269     0.7885 H       
@<TRIPOS>BOND
   1    1    2 ar
   2    1    6 ar
   3    2    3 ar
   4    2   19 1
   5    3    4 ar
   6    3    7 1
   7    4    5 ar
   8    4   20 1
   9    5    6 ar
  10    5   21 1
  11    6   22 1
  12    7    8 1
  13    7    9 am
  14    8   23 1
  15    8   24 1
  16    8   25 1
  17    9   10 2
  18    9   12 1
  19   11   12 2
  20   11   15 1
  21   11   26 1
  22   12   13 1
  23   13   14 2
  24   13   27 1
  25   14   15 1
  26   14   16 1
  27   16   17 2
  28   16   18 2

#	End of record

