#	Name: ASD07930607
#	Creating user name:	WinNT
#	Creation time:	15. 06. 2019 21:12

#	Modifying user name:	WinNT
#	Modification time:	15. 06. 2019 21:12

#	Program:	/corina/corina34_cracker 3.40 0067  02.08.2006

@<TRIPOS>MOLECULE
ASD07930607
  43   45    0    0    0
SMALL
NO_CHARGES


@<TRIPOS>ATOM
   1 C1             1.3745     0.7535    -1.5408 C.3     
   2 N2             2.3152    -2.0776    -1.4355 N.2     
   3 N3             0.0367    -2.5803    -1.3042 N.pl3   
   4 C4            -0.8987    -2.7415    -0.1861 C.3     
   5 C5            -1.5426    -1.3856     0.1345 C.3     
   6 S6            -0.2140    -0.1891     0.4773 S.o2    
   7 N7             0.8066    -0.3912    -0.8243 N.am    
   8 C8             1.0916    -1.6973    -1.1963 C.2     
   9 C9            -0.1431    -3.2516     1.0426 C.3     
  10 C10           -1.9706    -3.7306    -0.5653 C.ar    
  11 C11           -1.6898    -4.7435    -1.4636 C.ar    
  12 C12           -2.6800    -5.6557    -1.8121 C.ar    
  13 C13           -3.9470    -5.5466    -1.2572 C.ar    
  14 C14           -4.2229    -4.5325    -0.3599 C.ar    
  15 C15           -3.2350    -3.6281    -0.0096 C.ar    
  16 O16           -0.6913     1.1436     0.3538 O.2     
  17 O17            0.5544    -0.5969     1.6008 O.2     
  18 F18           -3.5076    -2.6381     0.8683 F       
  19 N19           -2.3987    -6.6833    -2.7226 N.am    
  20 C20           -3.3959    -7.2441    -3.4350 C.2     
  21 O21           -4.5203    -6.7953    -3.3618 O.2     
  22 C22           -3.1139    -8.4290    -4.3226 C.3     
  23 F23           -0.4552    -4.8467    -2.0024 F       
  24 C24           -4.2878    -9.0205    -5.1055 C.3     
  25 C25           -3.2090    -8.2173    -5.8349 C.3     
  26 H26            2.3238     1.0334    -1.0840 H       
  27 H27            1.5388     0.4839    -2.5841 H       
  28 H28            0.6835     1.5948    -1.4874 H       
  29 H29            3.0447    -1.4435    -1.3545 H       
  30 H30           -0.0837    -3.0964    -2.1166 H       
  31 H31           -2.1308    -1.0472    -0.7186 H       
  32 H32           -2.1853    -1.4818     1.0096 H       
  33 H33            0.6924    -2.5854     1.2578 H       
  34 H34           -0.8171    -3.2773     1.8989 H       
  35 H35            0.2337    -4.2554     0.8466 H       
  36 H36           -4.7175    -6.2537    -1.5268 H       
  37 H37           -5.2092    -4.4479     0.0718 H       
  38 H38           -1.4863    -6.9908    -2.8401 H       
  39 H39           -2.3535    -9.1194    -3.9575 H       
  40 H40           -4.2995   -10.1000    -5.2558 H       
  41 H41           -5.2641    -8.5526    -4.9786 H       
  42 H42           -3.4755    -7.2211    -6.1878 H       
  43 H43           -2.5110    -8.7684    -6.4651 H       
@<TRIPOS>BOND
   1    1    7 1
   2    1   26 1
   3    1   27 1
   4    1   28 1
   5    2    8 2
   6    2   29 1
   7    3    4 1
   8    3    8 1
   9    3   30 1
  10    4    5 1
  11    4    9 1
  12    4   10 1
  13    5    6 1
  14    5   31 1
  15    5   32 1
  16    6    7 am
  17    6   16 2
  18    6   17 2
  19    7    8 1
  20    9   33 1
  21    9   34 1
  22    9   35 1
  23   10   11 ar
  24   10   15 ar
  25   11   12 ar
  26   11   23 1
  27   12   13 ar
  28   12   19 1
  29   13   14 ar
  30   13   36 1
  31   14   15 ar
  32   14   37 1
  33   15   18 1
  34   19   20 am
  35   19   38 1
  36   20   21 2
  37   20   22 1
  38   22   24 1
  39   22   25 1
  40   22   39 1
  41   24   25 1
  42   24   40 1
  43   24   41 1
  44   25   42 1
  45   25   43 1

#	End of record

