#	Name: ASD09530009
#	Creating user name:	WinNT
#	Creation time:	15. 06. 2019 21:22

#	Modifying user name:	WinNT
#	Modification time:	15. 06. 2019 21:22

#	Program:	/corina/corina34_cracker 3.40 0067  02.08.2006

@<TRIPOS>MOLECULE
ASD09530009
  49   51    0    0    0
SMALL
NO_CHARGES


@<TRIPOS>ATOM
   1 N1            -1.1168     1.0016    -2.0394 N.am    
   2 C2            -0.7150    -0.2337    -1.7367 C.2     
   3 C3             0.6305    -0.5337    -1.1343 C.3     
   4 N4             1.4765     0.6645    -1.2383 N.am    
   5 C5             0.8525     1.9610    -0.9242 C.3     
   6 C6            -0.2895     2.1939    -1.9152 C.3     
   7 O7            -1.4693    -1.1576    -1.9568 O.2     
   8 C8             0.4596    -0.9142     0.3377 C.3     
   9 C9             1.2849    -1.6904    -1.8924 C.3     
  10 C10            2.7704     0.5797    -1.6056 C.2     
  11 C11            3.5764     1.8347    -1.8210 C.3     
  12 C12            5.0029     1.4609    -2.2289 C.3     
  13 O13            3.2862    -0.5067    -1.7629 O.2     
  14 C14            5.7739     2.7119    -2.5631 C.ar    
  15 C15            5.8128     3.7609    -1.6636 C.ar    
  16 C16            6.5200     4.9084    -1.9702 C.ar    
  17 C17            7.1886     5.0068    -3.1761 C.ar    
  18 C18            7.1504     3.9575    -4.0752 C.ar    
  19 C19            6.4469     2.8082    -3.7667 C.ar    
  20 C20            5.6795     0.7433    -1.0894 C.ar    
  21 C21            6.2918    -0.4767    -1.3073 C.ar    
  22 C22            6.9124    -1.1351    -0.2621 C.ar    
  23 C23            6.9209    -0.5732     1.0008 C.ar    
  24 C24            6.3093     0.6473     1.2185 C.ar    
  25 C25            5.6925     1.3076     0.1724 C.ar    
  26 H26           -2.0222     1.1133    -2.3690 H       
  27 H27            0.4596     1.9435     0.0923 H       
  28 H28            1.5907     2.7573    -1.0201 H       
  29 H29            0.1273     2.4445    -2.8906 H       
  30 H30           -0.9049     3.0227    -1.5651 H       
  31 H31           -0.1763    -1.7962     0.4136 H       
  32 H32            1.4352    -1.1312     0.7725 H       
  33 H33           -0.0020    -0.0862     0.8758 H       
  34 H34            1.5725    -1.3551    -2.8889 H       
  35 H35            2.1705    -2.0243    -1.3518 H       
  36 H36            0.5779    -2.5157    -1.9767 H       
  37 H37            3.1173     2.4305    -2.6099 H       
  38 H38            3.6023     2.4129    -0.8974 H       
  39 H39            4.9722     0.8089    -3.1018 H       
  40 H40            5.2904     3.6840    -0.7215 H       
  41 H41            6.5498     5.7282    -1.2678 H       
  42 H42            7.7405     5.9036    -3.4159 H       
  43 H43            7.6726     4.0344    -5.0175 H       
  44 H44            6.4201     1.9869    -4.4676 H       
  45 H45            6.2851    -0.9157    -2.2940 H       
  46 H46            7.3902    -2.0886    -0.4322 H       
  47 H47            7.4051    -1.0878     1.8176 H       
  48 H48            6.3157     1.0861     2.2053 H       
  49 H49            5.2179     2.2629     0.3416 H       
@<TRIPOS>BOND
   1    1    2 am
   2    1    6 1
   3    1   26 1
   4    2    3 1
   5    2    7 2
   6    3    4 1
   7    3    8 1
   8    3    9 1
   9    4    5 1
  10    4   10 am
  11    5    6 1
  12    5   27 1
  13    5   28 1
  14    6   29 1
  15    6   30 1
  16    8   31 1
  17    8   32 1
  18    8   33 1
  19    9   34 1
  20    9   35 1
  21    9   36 1
  22   10   11 1
  23   10   13 2
  24   11   12 1
  25   11   37 1
  26   11   38 1
  27   12   14 1
  28   12   20 1
  29   12   39 1
  30   14   15 ar
  31   14   19 ar
  32   15   16 ar
  33   15   40 1
  34   16   17 ar
  35   16   41 1
  36   17   18 ar
  37   17   42 1
  38   18   19 ar
  39   18   43 1
  40   19   44 1
  41   20   21 ar
  42   20   25 ar
  43   21   22 ar
  44   21   45 1
  45   22   23 ar
  46   22   46 1
  47   23   24 ar
  48   23   47 1
  49   24   25 ar
  50   24   48 1
  51   25   49 1

#	End of record

