#	Name: ASD01913830
#	Creating user name:	WinNT
#	Creation time:	15. 06. 2019 20:02

#	Modifying user name:	WinNT
#	Modification time:	15. 06. 2019 20:02

#	Program:	/corina/corina34_cracker 3.40 0067  02.08.2006

@<TRIPOS>MOLECULE
ASD01913830
  45   47    0    0    0
SMALL
NO_CHARGES


@<TRIPOS>ATOM
   1 C1            -0.0228     1.4277    -0.0312 C.ar    
   2 C2            -0.0018    -0.0041    -0.0268 C.1     
   3 C3             0.0154    -1.1780    -0.0233 C.1     
   4 C4             0.0363    -2.6098    -0.0189 C.ar    
   5 C5            -1.1340    -3.3384     0.2416 C.ar    
   6 C6             0.1560    -5.3344    -0.0280 C.ar    
   7 N7             1.2426    -4.6189    -0.2766 N.ar    
   8 C8             1.2208    -3.3022    -0.2796 C.ar    
   9 C9            -1.0632    -4.7169     0.2348 C.ar    
  10 N10            0.2331    -6.7250    -0.0369 N.am    
  11 C11           -0.8139    -7.5604    -0.0322 C.2     
  12 N12           -0.4748    -8.8562    -0.0430 N.am    
  13 C13            0.9911    -8.9718    -0.0572 C.3     
  14 C14            1.4768    -7.5093    -0.0595 C.3     
  15 O15           -1.9677    -7.1772    -0.0189 O.2     
  16 C16           -1.4149    -9.9797    -0.0410 C.3     
  17 C17            1.4842    -9.7050     1.1919 C.3     
  18 C18            1.4609    -9.6901    -1.3238 C.3     
  19 C19            1.1470     2.1462    -0.2916 C.ar    
  20 C20            1.1192     3.5253    -0.2940 C.ar    
  21 C21           -0.0632     4.1972    -0.0391 C.ar    
  22 C22           -1.2257     3.4923     0.2201 C.ar    
  23 C23           -1.2146     2.1133     0.2193 C.ar    
  24 C24            2.3797     4.3020    -0.5746 C.3     
  25 H25           -2.0670    -2.8331     0.4429 H       
  26 H26            2.1274    -2.7527    -0.4860 H       
  27 H27           -1.9442    -5.3098     0.4316 H       
  28 H28            2.0524    -7.2986    -0.9608 H       
  29 H29            2.0695    -7.3016     0.8314 H       
  30 H30           -2.4362    -9.5989    -0.0297 H       
  31 H31           -1.2619   -10.5831    -0.9358 H       
  32 H32           -1.2461   -10.5931     0.8441 H       
  33 H33            1.0714   -10.7137     1.2077 H       
  34 H34            2.5727    -9.7580     1.1761 H       
  35 H35            1.1595    -9.1655     2.0817 H       
  36 H36            1.1200    -9.1402    -2.2010 H       
  37 H37            2.5496    -9.7432    -1.3287 H       
  38 H38            1.0478   -10.6986    -1.3440 H       
  39 H39            2.0708     1.6230    -0.4900 H       
  40 H40           -0.0789     5.2771    -0.0420 H       
  41 H41           -2.1448     4.0235     0.4190 H       
  42 H42           -2.1226     1.5646     0.4214 H       
  43 H43            2.4640     4.4831    -1.6462 H       
  44 H44            2.3443     5.2551    -0.0468 H       
  45 H45            3.2425     3.7298    -0.2339 H       
@<TRIPOS>BOND
   1    1    2 1
   2    1   19 ar
   3    1   23 ar
   4    2    3 3
   5    3    4 1
   6    4    5 ar
   7    4    8 ar
   8    5    9 ar
   9    5   25 1
  10    6    7 ar
  11    6   10 1
  12    6    9 ar
  13    7    8 ar
  14    8   26 1
  15    9   27 1
  16   10   11 am
  17   10   14 1
  18   11   12 am
  19   11   15 2
  20   12   13 1
  21   12   16 1
  22   13   14 1
  23   13   17 1
  24   13   18 1
  25   14   28 1
  26   14   29 1
  27   16   30 1
  28   16   31 1
  29   16   32 1
  30   17   33 1
  31   17   34 1
  32   17   35 1
  33   18   36 1
  34   18   37 1
  35   18   38 1
  36   19   20 ar
  37   19   39 1
  38   20   21 ar
  39   20   24 1
  40   21   22 ar
  41   21   40 1
  42   22   23 ar
  43   22   41 1
  44   23   42 1
  45   24   43 1
  46   24   44 1
  47   24   45 1

#	End of record

