#	Name: ASD09530027
#	Creating user name:	WinNT
#	Creation time:	15. 06. 2019 21:22

#	Modifying user name:	WinNT
#	Modification time:	15. 06. 2019 21:22

#	Program:	/corina/corina34_cracker 3.40 0067  02.08.2006

@<TRIPOS>MOLECULE
ASD09530027
  53   55    0    0    0
SMALL
NO_CHARGES


@<TRIPOS>ATOM
   1 C1            -0.0149     1.2722     0.6773 C.ar    
   2 C2             0.0027    -0.0417     0.2325 C.ar    
   3 C3             1.2142    -0.6821     0.0159 C.ar    
   4 C4             2.3997    -0.0103     0.2434 C.ar    
   5 C5             2.3794     1.2991     0.6871 C.ar    
   6 C6             1.1733     1.9397     0.9033 C.ar    
   7 O7            -1.1648    -0.7006     0.0099 O.3     
   8 C8             3.6741     2.0293     0.9354 C.3     
   9 C9             4.1066     2.7287    -0.3274 C.2     
  10 N10            5.2451     3.4498    -0.3423 N.am    
  11 O11            3.4301     2.6427    -1.3304 O.2     
  12 C12            5.6656     4.1297    -1.5700 C.3     
  13 C13            6.5452     5.3019    -1.2190 C.ar    
  14 N14            7.2135     5.2962    -0.0825 N.ar    
  15 C15            7.9954     6.2982     0.2683 C.ar    
  16 C16            8.1420     7.4039    -0.5563 C.ar    
  17 C17            7.4510     7.4429    -1.7634 C.ar    
  18 C18            6.6448     6.3664    -2.0956 C.ar    
  19 O19            8.9487     8.4346    -0.1903 O.3     
  20 C20            9.6224     8.3171     1.0645 C.3     
  21 C21            6.4456     3.1530    -2.4524 C.3     
  22 C22           -2.3708     0.0553     0.1369 C.3     
  23 C23           -3.5056    -0.5932    -0.6871 C.3     
  24 C24           -4.5749    -0.9558     0.3671 C.3     
  25 O25           -4.3264    -0.0563     1.4693 O.3     
  26 C26           -2.8888     0.0078     1.5915 C.3     
  27 C27           10.4773     9.5634     1.3030 C.3     
  28 F28            9.6563    10.6961     1.3186 F       
  29 F29           11.1368     9.4484     2.5314 F       
  30 F30           11.4205     9.6852     0.2769 F       
  31 H31           -0.9567     1.7743     0.8424 H       
  32 H32            1.2305    -1.7051    -0.3300 H       
  33 H33            3.3430    -0.5083     0.0749 H       
  34 H34            1.1602     2.9625     1.2499 H       
  35 H35            3.5304     2.7647     1.7271 H       
  36 H36            4.4414     1.3162     1.2369 H       
  37 H37            5.7862     3.5186     0.4598 H       
  38 H38            4.7865     4.4835    -2.1087 H       
  39 H39            8.5269     6.2578     1.2076 H       
  40 H40            7.5443     8.2898    -2.4271 H       
  41 H41            6.0939     6.3626    -3.0245 H       
  42 H42            8.8875     8.2222     1.8639 H       
  43 H43           10.2620     7.4346     1.0523 H       
  44 H44            7.3246     2.7992    -1.9137 H       
  45 H45            5.8094     2.3051    -2.7062 H       
  46 H46            6.7584     3.6589    -3.3658 H       
  47 H47           -2.2096     1.0857    -0.1799 H       
  48 H48           -3.9071     0.1174    -1.4096 H       
  49 H49           -3.1467    -1.4904    -1.1914 H       
  50 H50           -5.5749    -0.7951    -0.0359 H       
  51 H51           -4.4560    -1.9908     0.6877 H       
  52 H52           -2.5112    -0.8794     2.0999 H       
  53 H53           -2.5934     0.9088     2.1291 H       
@<TRIPOS>BOND
   1    1    2 ar
   2    1    6 ar
   3    1   31 1
   4    2    3 ar
   5    2    7 1
   6    3    4 ar
   7    3   32 1
   8    4    5 ar
   9    4   33 1
  10    5    6 ar
  11    5    8 1
  12    6   34 1
  13    7   22 1
  14    8    9 1
  15    8   35 1
  16    8   36 1
  17    9   10 am
  18    9   11 2
  19   10   12 1
  20   10   37 1
  21   12   13 1
  22   12   21 1
  23   12   38 1
  24   13   14 ar
  25   13   18 ar
  26   14   15 ar
  27   15   16 ar
  28   15   39 1
  29   16   17 ar
  30   16   19 1
  31   17   18 ar
  32   17   40 1
  33   18   41 1
  34   19   20 1
  35   20   27 1
  36   20   42 1
  37   20   43 1
  38   21   44 1
  39   21   45 1
  40   21   46 1
  41   22   23 1
  42   22   26 1
  43   22   47 1
  44   23   24 1
  45   23   48 1
  46   23   49 1
  47   24   25 1
  48   24   50 1
  49   24   51 1
  50   25   26 1
  51   26   52 1
  52   26   53 1
  53   27   28 1
  54   27   29 1
  55   27   30 1

#	End of record

