#	Name: ASD01148887
#	Creating user name:	WinNT
#	Creation time:	15. 06. 2019 19:03

#	Modifying user name:	WinNT
#	Modification time:	15. 06. 2019 19:03

#	Program:	/corina/corina34_cracker 3.40 0067  02.08.2006

@<TRIPOS>MOLECULE
ASD01148887
  37   39    0    0    0
SMALL
NO_CHARGES


@<TRIPOS>ATOM
   1 N1            -0.0015     1.3220     0.2952 N.pl3   
   2 C2             0.0059    -0.0074    -0.0484 C.2     
   3 C3             1.2923    -0.3599    -0.3276 C.2     
   4 C4             2.0886     0.7834    -0.1496 C.2     
   5 C5             1.2773     1.7947     0.2297 C.2     
   6 C6            -1.1344     2.0705     0.6484 C.ar    
   7 C7            -1.2803     2.5373     1.9479 C.ar    
   8 C8            -2.3943     3.2740     2.2959 C.ar    
   9 C9            -3.3701     3.5486     1.3454 C.ar    
  10 C10           -3.2236     3.0812     0.0449 C.ar    
  11 C11           -2.1065     2.3490    -0.3032 C.ar    
  12 S12           -4.7929     4.4886     1.7890 S.3     
  13 C13           -5.7313     4.5649     0.2384 C.3     
  14 F14           -6.0518     3.2680    -0.1770 F       
  15 F15           -6.9081     5.2939     0.4409 F       
  16 F16           -4.9578     5.1917    -0.7444 F       
  17 C17            1.7108     3.2066     0.5291 C.3     
  18 C18           -1.1725    -0.8983    -0.1049 C.ar    
  19 C19           -2.3394    -0.5611     0.5828 C.ar    
  20 C20           -3.4357    -1.3964     0.5264 C.ar    
  21 C21           -3.3800    -2.5676    -0.2103 C.ar    
  22 C22           -2.2252    -2.9074    -0.8946 C.ar    
  23 C23           -1.1246    -2.0770    -0.8508 C.ar    
  24 Cl24          -4.7634    -3.6143    -0.2757 Cl      
  25 H25            1.6362    -1.3382    -0.6296 H       
  26 H26            3.1577     0.8431    -0.2904 H       
  27 H27           -0.5220     2.3235     2.6867 H       
  28 H28           -2.5078     3.6368     3.3068 H       
  29 H29           -3.9818     3.2939    -0.6941 H       
  30 H30           -1.9904     1.9894    -1.3149 H       
  31 H31            1.9593     3.2938     1.5868 H       
  32 H32            2.5864     3.4529    -0.0714 H       
  33 H33            0.9001     3.8943     0.2886 H       
  34 H34           -2.3837     0.3517     1.1583 H       
  35 H35           -4.3391    -1.1366     1.0581 H       
  36 H36           -2.1876    -3.8223    -1.4673 H       
  37 H37           -0.2261    -2.3407    -1.3889 H       
@<TRIPOS>BOND
   1    1    2 1
   2    1    5 1
   3    1    6 1
   4    2    3 2
   5    2   18 1
   6    3    4 1
   7    3   25 1
   8    4    5 2
   9    4   26 1
  10    5   17 1
  11    6    7 ar
  12    6   11 ar
  13    7    8 ar
  14    7   27 1
  15    8    9 ar
  16    8   28 1
  17    9   10 ar
  18    9   12 1
  19   10   11 ar
  20   10   29 1
  21   11   30 1
  22   12   13 1
  23   13   14 1
  24   13   15 1
  25   13   16 1
  26   17   31 1
  27   17   32 1
  28   17   33 1
  29   18   19 ar
  30   18   23 ar
  31   19   20 ar
  32   19   34 1
  33   20   21 ar
  34   20   35 1
  35   21   22 ar
  36   21   24 1
  37   22   23 ar
  38   22   36 1
  39   23   37 1

#	End of record

