#	Name: ASD01320120
#	Creating user name:	WinNT
#	Creation time:	15. 06. 2019 19:16

#	Modifying user name:	WinNT
#	Modification time:	15. 06. 2019 19:16

#	Program:	/corina/corina34_cracker 3.40 0067  02.08.2006

@<TRIPOS>MOLECULE
ASD01320120
  50   53    0    0    0
SMALL
NO_CHARGES


@<TRIPOS>ATOM
   1 Cl1           -3.5319    -1.2153     0.2071 Cl      
   2 C2             0.2257     1.2783     0.0198 C.ar    
   3 N3             2.5574     4.8731     0.0698 N.am    
   4 O4             0.5653     5.8145     0.3540 O.2     
   5 C5             0.2945    -0.1066    -0.1005 C.ar    
   6 N6             1.1755     2.2728     0.0015 N.pl3   
   7 O7             5.1077     5.0284    -0.7388 O.2     
   8 C8            -0.8585    -0.8573    -0.0416 C.ar    
   9 N9             5.0592     7.1970    -1.2041 N.am    
  10 O10            6.8519     9.6983    -3.5394 O.2     
  11 C11           -2.0937    -0.2455     0.1368 C.ar    
  12 O12            6.3608    11.3296    -2.1319 O.3     
  13 C13           -2.1861     1.1117     0.2569 C.ar    
  14 C14           -1.0278     1.8969     0.1949 C.ar    
  15 C15           -0.7917     3.2901     0.2852 C.2     
  16 C16            0.5466     3.4917     0.1665 C.2     
  17 C17            1.2183     4.7994     0.2032 C.2     
  18 C18            3.4968     6.5697     1.5599 C.3     
  19 C19            2.1873     6.7888     2.2727 C.ar    
  20 C20            1.5660     5.7349     2.9164 C.ar    
  21 C21            0.3647     5.9358     3.5702 C.ar    
  22 C22           -0.2150     7.1907     3.5809 C.ar    
  23 C23            0.4068     8.2448     2.9380 C.ar    
  24 C24            1.6102     8.0448     2.2878 C.ar    
  25 C25            3.2266     6.1758     0.1064 C.3     
  26 C26            4.5318     6.0914    -0.6422 C.2     
  27 C27            6.3048     7.5355    -1.9090 C.3     
  28 C28            6.1280     8.9783    -1.4159 C.3     
  29 C29            6.4735    10.0281    -2.4404 C.2     
  30 C30            4.6394     8.5945    -1.3882 C.3     
  31 H31            3.0782     4.0636    -0.0505 H       
  32 H32            1.2495    -0.5912    -0.2402 H       
  33 H33            2.1300     2.1401    -0.1090 H       
  34 H34           -0.8024    -1.9317    -0.1353 H       
  35 H35            6.5938    11.9660    -2.8217 H       
  36 H36           -3.1501     1.5788     0.3946 H       
  37 H37           -1.5413     4.0555     0.4222 H       
  38 H38            4.0820     7.4890     1.5844 H       
  39 H39            4.0513     5.7727     2.0553 H       
  40 H40            2.0189     4.7545     2.9081 H       
  41 H41           -0.1210     5.1123     4.0725 H       
  42 H42           -1.1539     7.3475     4.0911 H       
  43 H43           -0.0463     9.2251     2.9460 H       
  44 H44            2.0978     8.8692     1.7888 H       
  45 H45            2.5879     6.9256    -0.3605 H       
  46 H46            7.1845     7.0408    -1.4975 H       
  47 H47            6.2318     7.4349    -2.9919 H       
  48 H48            6.5645     9.1724    -0.4361 H       
  49 H49            4.1275     8.7730    -2.3337 H       
  50 H50            4.1004     9.0020    -0.5329 H       
@<TRIPOS>BOND
   1    1   11 1
   2    2    5 ar
   3    2    6 1
   4    2   14 ar
   5    3   17 am
   6    3   25 1
   7    3   31 1
   8    4   17 2
   9    5    8 ar
  10    5   32 1
  11    6   16 1
  12    6   33 1
  13    7   26 2
  14    8   11 ar
  15    8   34 1
  16    9   26 am
  17    9   27 1
  18    9   30 1
  19   10   29 2
  20   11   13 ar
  21   12   29 1
  22   12   35 1
  23   13   14 ar
  24   13   36 1
  25   14   15 1
  26   15   16 2
  27   15   37 1
  28   16   17 1
  29   18   19 1
  30   18   25 1
  31   18   38 1
  32   18   39 1
  33   19   20 ar
  34   19   24 ar
  35   20   21 ar
  36   20   40 1
  37   21   22 ar
  38   21   41 1
  39   22   23 ar
  40   22   42 1
  41   23   24 ar
  42   23   43 1
  43   24   44 1
  44   25   26 1
  45   25   45 1
  46   27   28 1
  47   27   46 1
  48   27   47 1
  49   28   29 1
  50   28   30 1
  51   28   48 1
  52   30   49 1
  53   30   50 1

#	End of record

