#	Name: ASD03080180
#	Creating user name:	WinNT
#	Creation time:	15. 06. 2019 20:26

#	Modifying user name:	WinNT
#	Modification time:	15. 06. 2019 20:26

#	Program:	/corina/corina34_cracker 3.40 0067  02.08.2006

@<TRIPOS>MOLECULE
ASD03080180
  26   27    0    0    0
SMALL
NO_CHARGES


@<TRIPOS>ATOM
   1 C1            -0.0158     1.3142     0.0093 C.ar    
   2 N2             0.0021    -0.0041     0.0020 N.ar    
   3 C3             1.1445    -0.6686    -0.0124 C.ar    
   4 C4             2.3450     0.0496    -0.0200 C.ar    
   5 C5             2.2777     1.4470    -0.0119 C.ar    
   6 N6             1.0915     2.0298     0.0025 N.ar    
   7 C7             3.6480    -0.6483    -0.0357 C.2     
   8 C8             4.7743     0.0507    -0.0427 C.2     
   9 N9             8.3315    -0.1225    -0.8625 N.3     
  10 C10            6.9278    -0.2483    -1.2958 C.3     
  11 C11            6.1027    -0.6608    -0.0587 C.3     
  12 C12            6.9898    -0.1931     1.1250 C.3     
  13 C13            8.4127    -0.4608     0.5744 C.3     
  14 H14           -0.9678     1.8241     0.0165 H       
  15 H15            1.1510    -1.7486    -0.0179 H       
  16 H16            3.1803     2.0399    -0.0169 H       
  17 H17            3.6824    -1.7278    -0.0415 H       
  18 H18            4.7400     1.1301    -0.0369 H       
  19 H19            8.9336    -0.7197    -1.4092 H       
  20 H20            6.5705     0.7081    -1.6777 H       
  21 H21            6.8453    -1.0127    -2.0683 H       
  22 H22            5.9626    -1.7415    -0.0318 H       
  23 H23            6.8428     0.8678     1.3277 H       
  24 H24            6.7975    -0.7897     2.0167 H       
  25 H25            8.6780    -1.5102     0.7028 H       
  26 H26            9.1397     0.1792     1.0745 H       
@<TRIPOS>BOND
   1    1    2 ar
   2    1    6 ar
   3    1   14 1
   4    2    3 ar
   5    3    4 ar
   6    3   15 1
   7    4    5 ar
   8    4    7 1
   9    5    6 ar
  10    5   16 1
  11    7    8 2
  12    7   17 1
  13    8   11 1
  14    8   18 1
  15    9   10 1
  16    9   13 1
  17    9   19 1
  18   10   11 1
  19   10   20 1
  20   10   21 1
  21   11   12 1
  22   11   22 1
  23   12   13 1
  24   12   23 1
  25   12   24 1
  26   13   25 1
  27   13   26 1

#	End of record

