#	Name: ASD04880728
#	Creating user name:	WinNT
#	Creation time:	15. 06. 2019 20:53

#	Modifying user name:	WinNT
#	Modification time:	15. 06. 2019 20:53

#	Program:	/corina/corina34_cracker 3.40 0067  02.08.2006

@<TRIPOS>MOLECULE
ASD04880728
  78   82    0    0    0
SMALL
NO_CHARGES


@<TRIPOS>ATOM
   1 C1             0.0060     1.3698     0.0045 C.ar    
   2 C2            -1.1991     2.0505     0.0646 C.ar    
   3 C3            -1.2141     3.4320     0.1067 C.ar    
   4 C4            -0.0272     4.1386     0.0890 C.ar    
   5 C5             1.1834     3.4602     0.0293 C.ar    
   6 C6             1.1974     2.0720    -0.0129 C.ar    
   7 C7            -0.0459     5.6448     0.1340 C.3     
   8 N8             2.3845     4.1728     0.0113 N.3     
   9 C9             3.1861     3.8842     1.2088 C.3     
  10 C10            3.1481     3.8872    -1.2114 C.3     
  11 C11            4.4155     4.7450    -1.2302 C.3     
  12 N12            5.2170     4.4564    -0.0328 N.3     
  13 C13            4.4535     4.7420     1.1900 C.3     
  14 C14            6.4145     5.1668    -0.0507 C.ar    
  15 C15            6.6469     6.1584     0.8947 C.ar    
  16 C16            7.8312     6.8643     0.8806 C.ar    
  17 C17            8.8021     6.5832    -0.0865 C.ar    
  18 C18            8.5693     5.5857    -1.0381 C.ar    
  19 C19            7.3832     4.8774    -1.0162 C.ar    
  20 N20            7.1489     3.8730    -1.9650 N.am    
  21 C21            7.6310     4.0030    -3.2169 C.2     
  22 C22            7.4941     2.9001    -4.1734 C.2     
  23 O23            8.1801     5.0358    -3.5534 O.2     
  24 C24            6.9701     0.9512    -5.0342 C.2     
  25 C25            7.5985     1.6485    -6.0063 C.2     
  26 C26            7.9399     2.8973    -5.4641 C.2     
  27 O27            6.9107     1.7081    -3.9307 O.3     
  28 C28           10.0687     7.3380    -0.1026 C.2     
  29 Cl29           8.1174     8.1027     2.0631 Cl      
  30 O30           10.2701     8.2056     0.7253 O.2     
  31 N31           11.0034     7.0662    -1.0349 N.am    
  32 C32           12.2618     7.8161    -1.0508 C.3     
  33 C33           13.1263     7.3226    -2.1822 C.ar    
  34 C34           13.0303     7.9072    -3.4314 C.ar    
  35 C35           13.8232     7.4545    -4.4690 C.ar    
  36 C36           14.7127     6.4173    -4.2577 C.ar    
  37 C37           14.8093     5.8335    -3.0087 C.ar    
  38 C38           14.0192     6.2892    -1.9696 C.ar    
  39 F39            0.0177     0.0193    -0.0313 F       
  40 C40           15.7784     4.7026    -2.7785 C.3     
  41 N41           17.0746     5.2475    -2.3531 N.3     
  42 C42           16.9688     5.8906    -1.0366 C.3     
  43 C43           18.1082     4.2037    -2.3475 C.3     
  44 H44           -2.1286     1.5007     0.0782 H       
  45 H45           -2.1552     3.9599     0.1531 H       
  46 H46            2.1371     1.5418    -0.0594 H       
  47 H47           -0.0171     5.9777     1.1715 H       
  48 H48            0.8224     6.0350    -0.3970 H       
  49 H49           -0.9565     6.0112    -0.3400 H       
  50 H50            2.6037     4.1155     2.1007 H       
  51 H51            3.4609     2.8295     1.2169 H       
  52 H52            3.4225     2.8325    -1.2308 H       
  53 H53            2.5380     4.1207    -2.0840 H       
  54 H54            4.9979     4.5138    -2.1221 H       
  55 H55            4.1407     5.7998    -1.2383 H       
  56 H56            4.1791     5.7967     1.2093 H       
  57 H57            5.0636     4.5085     2.0625 H       
  58 H58            5.8982     6.3769     1.6418 H       
  59 H59            9.3168     5.3663    -1.7861 H       
  60 H60            6.6398     3.0843    -1.7208 H       
  61 H61            6.5800    -0.0512    -5.1311 H       
  62 H62            7.8005     1.3085    -7.0113 H       
  63 H63            8.4551     3.7006    -5.9699 H       
  64 H64           10.8428     6.3741    -1.6953 H       
  65 H65           12.0512     8.8764    -1.1904 H       
  66 H66           12.7834     7.6707    -0.1049 H       
  67 H67           12.3356     8.7174    -3.5965 H       
  68 H68           13.7477     7.9107    -5.4450 H       
  69 H69           15.3317     6.0631    -5.0687 H       
  70 H70           14.0974     5.8355    -0.9927 H       
  71 H71           15.3894     4.0430    -2.0028 H       
  72 H72           15.9066     4.1400    -3.7032 H       
  73 H73           16.6388     5.1582    -0.2999 H       
  74 H74           17.9423     6.2853    -0.7457 H       
  75 H75           16.2467     6.7056    -1.0873 H       
  76 H76           18.2145     3.7923    -3.3513 H       
  77 H77           19.0576     4.6342    -2.0289 H       
  78 H78           17.8195     3.4102    -1.6583 H       
@<TRIPOS>BOND
   1    1    2 ar
   2    1    6 ar
   3    1   39 1
   4    2    3 ar
   5    2   44 1
   6    3    4 ar
   7    3   45 1
   8    4    5 ar
   9    4    7 1
  10    5    6 ar
  11    5    8 1
  12    6   46 1
  13    7   47 1
  14    7   48 1
  15    7   49 1
  16    8   10 1
  17    8    9 1
  18    9   13 1
  19    9   50 1
  20    9   51 1
  21   10   11 1
  22   10   52 1
  23   10   53 1
  24   11   12 1
  25   11   54 1
  26   11   55 1
  27   12   13 1
  28   12   14 1
  29   13   56 1
  30   13   57 1
  31   14   15 ar
  32   14   19 ar
  33   15   16 ar
  34   15   58 1
  35   16   17 ar
  36   16   29 1
  37   17   18 ar
  38   17   28 1
  39   18   19 ar
  40   18   59 1
  41   19   20 1
  42   20   21 am
  43   20   60 1
  44   21   22 1
  45   21   23 2
  46   22   27 1
  47   22   26 2
  48   24   25 2
  49   24   27 1
  50   24   61 1
  51   25   26 1
  52   25   62 1
  53   26   63 1
  54   28   30 2
  55   28   31 am
  56   31   32 1
  57   31   64 1
  58   32   33 1
  59   32   65 1
  60   32   66 1
  61   33   34 ar
  62   33   38 ar
  63   34   35 ar
  64   34   67 1
  65   35   36 ar
  66   35   68 1
  67   36   37 ar
  68   36   69 1
  69   37   38 ar
  70   37   40 1
  71   38   70 1
  72   40   41 1
  73   40   71 1
  74   40   72 1
  75   41   42 1
  76   41   43 1
  77   42   73 1
  78   42   74 1
  79   42   75 1
  80   43   76 1
  81   43   77 1
  82   43   78 1

#	End of record

