#	Name: ASD04840103
#	Creating user name:	WinNT
#	Creation time:	15. 06. 2019 20:52

#	Modifying user name:	WinNT
#	Modification time:	15. 06. 2019 20:52

#	Program:	/corina/corina34_cracker 3.40 0067  02.08.2006

@<TRIPOS>MOLECULE
ASD04840103
  53   56    0    0    0
SMALL
NO_CHARGES


@<TRIPOS>ATOM
   1 C1            -0.0166     1.3754     0.0096 C.ar    
   2 C2             0.0021    -0.0041     0.0020 C.ar    
   3 C3             1.2078    -0.6825    -0.0131 C.ar    
   4 C4             1.2206    -2.1894    -0.0214 C.3     
   5 C5             2.4018     0.0165    -0.0212 C.ar    
   6 C6             2.3970     1.3960    -0.0133 C.ar    
   7 C7             1.1842     2.0865     0.0020 C.ar    
   8 C8             1.1717     3.5649     0.0095 C.2     
   9 S9            -0.2837     4.5428     0.0287 S.3     
  10 C10            2.2654     4.3272     0.0084 C.2     
  11 C11            2.0073     5.7513     0.0177 C.ar    
  12 C12            0.6386     6.0388     0.0283 C.ar    
  13 N13            0.2428     7.3181     0.0377 N.ar    
  14 C14            1.1166     8.2979     0.0371 C.ar    
  15 N15            2.4195     8.0797     0.0268 N.ar    
  16 C16            2.9088     6.8490     0.0202 C.ar    
  17 N17            4.2750     6.6361     0.0099 N.pl3   
  18 C18            5.1941     7.7769     0.0063 C.3     
  19 C19            5.4028     8.2494    -1.4094 C.2     
  20 O20            4.8392     7.6884    -2.3252 O.2     
  21 N21            6.2156     9.2954    -1.6578 N.am    
  22 P22            6.4427     9.8095    -3.1985 P.3     
  23 O23            7.3712    10.9621    -3.2022 O.2     
  24 O24            7.0680     8.6138    -4.0767 O.3     
  25 O25            5.0302    10.2563    -3.8289 O.3     
  26 C26            6.5364     7.3523     0.6053 C.3     
  27 C27            6.3484     6.9965     2.0576 C.ar    
  28 C28            6.0399     5.6977     2.4167 C.ar    
  29 C29            5.8674     5.3713     3.7488 C.ar    
  30 C30            6.0032     6.3437     4.7219 C.ar    
  31 C31            6.3117     7.6425     4.3628 C.ar    
  32 C32            6.4898     7.9677     3.0311 C.ar    
  33 H33           -0.9585     1.9038     0.0169 H       
  34 H34           -0.9265    -0.5556     0.0083 H       
  35 H35            1.2139    -2.5472    -1.0509 H       
  36 H36            2.1185    -2.5479     0.4820 H       
  37 H37            0.3387    -2.5631     0.4989 H       
  38 H38            3.3396    -0.5191    -0.0334 H       
  39 H39            3.3297     1.9405    -0.0190 H       
  40 H40            3.2637     3.9152     0.0016 H       
  41 H41            0.7583     9.3166     0.0448 H       
  42 H42            4.6249     5.7314     0.0052 H       
  43 H43            4.7707     8.5865     0.6009 H       
  44 H44            6.6663     9.7440    -0.9254 H       
  45 H45            7.2292     8.8474    -5.0011 H       
  46 H46            4.3713     9.5491    -3.8582 H       
  47 H47            6.9174     6.4856     0.0653 H       
  48 H48            7.2478     8.1740     0.5218 H       
  49 H49            5.9334     4.9381     1.6564 H       
  50 H50            5.6260     4.3567     4.0293 H       
  51 H51            5.8681     6.0888     5.7626 H       
  52 H52            6.4175     8.4023     5.1230 H       
  53 H53            6.7308     8.9824     2.7506 H       
@<TRIPOS>BOND
   1    1    2 ar
   2    1    7 ar
   3    1   33 1
   4    2    3 ar
   5    2   34 1
   6    3    4 1
   7    3    5 ar
   8    4   35 1
   9    4   36 1
  10    4   37 1
  11    5   38 1
  12    5    6 ar
  13    6   39 1
  14    6    7 ar
  15    7    8 1
  16    8    9 1
  17    8   10 2
  18    9   12 1
  19   10   40 1
  20   10   11 1
  21   11   12 ar
  22   11   16 ar
  23   12   13 ar
  24   13   14 ar
  25   14   41 1
  26   14   15 ar
  27   15   16 ar
  28   16   17 1
  29   17   42 1
  30   17   18 1
  31   18   43 1
  32   18   19 1
  33   18   26 1
  34   19   20 2
  35   19   21 am
  36   21   44 1
  37   21   22 1
  38   22   24 1
  39   22   23 2
  40   22   25 1
  41   24   45 1
  42   25   46 1
  43   26   27 1
  44   26   47 1
  45   26   48 1
  46   27   28 ar
  47   27   32 ar
  48   28   29 ar
  49   28   49 1
  50   29   50 1
  51   29   30 ar
  52   30   51 1
  53   30   31 ar
  54   31   52 1
  55   31   32 ar
  56   32   53 1

#	End of record

