#	Name: ASD01208072
#	Creating user name:	WinNT
#	Creation time:	15. 06. 2019 19:09

#	Modifying user name:	WinNT
#	Modification time:	15. 06. 2019 19:09

#	Program:	/corina/corina34_cracker 3.40 0067  02.08.2006

@<TRIPOS>MOLECULE
ASD01208072
  60   64    0    0    0
SMALL
NO_CHARGES


@<TRIPOS>ATOM
   1 C1             0.0155     1.3386     0.2953 C.ar    
   2 C2             0.1587    -0.0375     0.1927 C.ar    
   3 C3            -0.9617    -0.8566     0.1766 C.ar    
   4 C4            -2.2281    -0.3027     0.2625 C.ar    
   5 C5            -2.3767     1.0813     0.3659 C.ar    
   6 C6            -1.2471     1.9006     0.3874 C.ar    
   7 C7            -3.7259     1.6770     0.4573 C.2     
   8 C8            -4.0051     3.0096     0.5613 C.2     
   9 N9            -4.9087     0.9864     0.4462 N.pl3   
  10 C10           -5.9407     1.8878     0.5497 C.2     
  11 C11           -5.3936     3.1507     0.6222 C.2     
  12 O12            1.1159     2.1359     0.3110 O.3     
  13 C13            0.8944     3.5476     0.2990 C.3     
  14 C14            2.1181     4.2509    -0.2916 C.3     
  15 O15            3.2426     4.0520     0.5674 O.3     
  16 C16            0.6642     4.0399     1.7293 C.3     
  17 O17           -0.8159    -2.2040     0.0760 O.3     
  18 C18           -1.2724    -2.8113    -1.0461 C.ar    
  19 C19           -1.2381    -4.2007    -1.1373 C.ar    
  20 N20           -1.7499    -2.0757    -2.0381 N.ar    
  21 C21           -2.2052    -2.6186    -3.1479 C.ar    
  22 C22           -2.1994    -4.0035    -3.3167 C.ar    
  23 C23           -1.7052    -4.8130    -2.2829 C.ar    
  24 C24           -7.3740     1.5629     0.5747 C.2     
  25 N25           -7.9038     0.3608     0.5029 N.2     
  26 N26           -9.1856     0.4591     0.5544 N.2     
  27 C27           -9.5238     1.7136     0.6600 C.2     
  28 O28           -8.3927     2.4414     0.6815 O.3     
  29 C29           -2.7108    -4.6084    -4.5623 C.2     
  30 N30           -2.8521    -5.9456    -4.6536 N.am    
  31 O31           -3.0047    -3.9003    -5.5060 O.2     
  32 C32           -3.3614    -6.8905    -5.6589 C.3     
  33 C33           -3.6971    -7.8496    -4.5085 C.3     
  34 C34           -2.5587    -7.1025    -3.7943 C.3     
  35 Cl35          -0.6147    -5.1515     0.1746 Cl      
  36 C36          -10.9288     2.2512     0.7486 C.3     
  37 H37            1.1448    -0.4727     0.1248 H       
  38 H38           -3.0994    -0.9406     0.2492 H       
  39 H39           -1.3576     2.9720     0.4673 H       
  40 H40           -3.2819     3.8111     0.5916 H       
  41 H41           -5.0021     0.0234     0.3766 H       
  42 H42           -5.9384     4.0790     0.7106 H       
  43 H43            0.0176     3.7727    -0.3082 H       
  44 H44            2.3352     3.8366    -1.2762 H       
  45 H45            1.9150     5.3179    -0.3831 H       
  46 H46            4.0557     4.4714     0.2544 H       
  47 H47            1.5409     3.8148     2.3365 H       
  48 H48            0.4952     5.1167     1.7201 H       
  49 H49           -0.2076     3.5389     2.1501 H       
  50 H50           -2.5873    -1.9856    -3.9351 H       
  51 H51           -1.6867    -5.8883    -2.3826 H       
  52 H52           -4.2403    -6.5263    -6.1909 H       
  53 H53           -2.5896    -7.2694    -6.3288 H       
  54 H54           -4.6826    -7.6938    -4.0698 H       
  55 H55           -3.4780    -8.8961    -4.7207 H       
  56 H56           -1.5756    -7.5395    -3.9696 H       
  57 H57           -2.7562    -6.9176    -2.7384 H       
  58 H58          -11.2322     2.3046     1.7942 H       
  59 H59          -10.9650     3.2478     0.3085 H       
  60 H60          -11.6056     1.5902     0.2072 H       
@<TRIPOS>BOND
   1    1    2 ar
   2    1   12 1
   3    1    6 ar
   4    2    3 ar
   5    2   37 1
   6    3    4 ar
   7    3   17 1
   8    4    5 ar
   9    4   38 1
  10    5    6 ar
  11    5    7 1
  12    6   39 1
  13    7    8 2
  14    7    9 1
  15    8   11 1
  16    8   40 1
  17    9   10 1
  18    9   41 1
  19   10   11 2
  20   10   24 1
  21   11   42 1
  22   12   13 1
  23   13   14 1
  24   13   16 1
  25   13   43 1
  26   14   15 1
  27   14   44 1
  28   14   45 1
  29   15   46 1
  30   16   47 1
  31   16   48 1
  32   16   49 1
  33   17   18 1
  34   18   19 ar
  35   18   20 ar
  36   19   35 1
  37   19   23 ar
  38   20   21 ar
  39   21   22 ar
  40   21   50 1
  41   22   23 ar
  42   22   29 1
  43   23   51 1
  44   24   25 2
  45   24   28 1
  46   25   26 1
  47   26   27 2
  48   27   28 1
  49   27   36 1
  50   29   30 am
  51   29   31 2
  52   30   32 1
  53   30   34 1
  54   32   33 1
  55   32   52 1
  56   32   53 1
  57   33   34 1
  58   33   54 1
  59   33   55 1
  60   34   56 1
  61   34   57 1
  62   36   58 1
  63   36   59 1
  64   36   60 1

#	End of record

