#	Name: ASD03091645
#	Creating user name:	WinNT
#	Creation time:	15. 06. 2019 20:31

#	Modifying user name:	WinNT
#	Modification time:	15. 06. 2019 20:31

#	Program:	/corina/corina34_cracker 3.40 0067  02.08.2006

@<TRIPOS>MOLECULE
ASD03091645
  30   31    0    0    0
SMALL
NO_CHARGES


@<TRIPOS>ATOM
   1 Cl1           -0.7878    -0.5916    -3.8289 Cl      
   2 O2            -0.0173     1.4248     0.0099 O.3     
   3 O3             1.2627     0.2725    -1.9865 O.2     
   4 N4             1.4369    -2.7151    -0.5786 N.3     
   5 C5             0.6384    -1.9753    -1.5650 C.3     
   6 C6            -0.8208    -2.4380    -1.4973 C.3     
   7 C7            -1.4112    -2.0603    -0.1378 C.3     
   8 C8            -1.4340    -0.5383     0.0129 C.3     
   9 C9             0.0021    -0.0041     0.0020 C.3     
  10 C10            0.6887    -0.4960    -1.2529 C.2     
  11 C11            1.1846    -2.2238    -2.9474 C.ar    
  12 C12            0.5891    -1.6267    -4.0444 C.ar    
  13 C13            2.2839    -3.0435    -3.1191 C.ar    
  14 C14            1.0910    -1.8553    -5.3130 C.ar    
  15 C15            2.7854    -3.2712    -4.3873 C.ar    
  16 C16            2.1871    -2.6800    -5.4841 C.ar    
  17 H17           -1.3927    -1.9542    -2.2891 H       
  18 H18           -0.8655    -3.5196    -1.6252 H       
  19 H19           -2.4276    -2.4470    -0.0641 H       
  20 H20           -0.8015    -2.4937     0.6550 H       
  21 H21           -1.9914    -0.0994    -0.8147 H       
  22 H22           -1.9133    -0.2735     0.9553 H       
  23 H23            0.5347    -0.3678     0.8807 H       
  24 H24            2.4032    -2.4260    -0.6056 H       
  25 H25            1.0538    -2.6101     0.3489 H       
  26 H26            2.7515    -3.5060    -2.2625 H       
  27 H27            0.8606     1.8301     0.0037 H       
  28 H28            0.6264    -1.3899    -6.1697 H       
  29 H29            3.6449    -3.9113    -4.5209 H       
  30 H30            2.5791    -2.8586    -6.4745 H       
@<TRIPOS>BOND
   1    1   12 1
   2    2    9 1
   3    2   27 1
   4    3   10 2
   5    4    5 1
   6    4   24 1
   7    4   25 1
   8    5    6 1
   9    5   10 1
  10    5   11 1
  11    6    7 1
  12    6   17 1
  13    6   18 1
  14    7    8 1
  15    7   19 1
  16    7   20 1
  17    8    9 1
  18    8   21 1
  19    8   22 1
  20    9   10 1
  21    9   23 1
  22   11   12 ar
  23   11   13 ar
  24   12   14 ar
  25   13   15 ar
  26   13   26 1
  27   14   16 ar
  28   14   28 1
  29   15   16 ar
  30   15   29 1
  31   16   30 1

#	End of record

