#	Name: ASD01941010
#	Creating user name:	WinNT
#	Creation time:	15. 06. 2019 20:13

#	Modifying user name:	WinNT
#	Modification time:	15. 06. 2019 20:13

#	Program:	/corina/corina34_cracker 3.40 0067  02.08.2006

@<TRIPOS>MOLECULE
ASD01941010
  48   50    0    0    0
SMALL
NO_CHARGES


@<TRIPOS>ATOM
   1 C1            -0.0916     1.2103     0.8325 C.ar    
   2 C2            -0.4506     0.3747    -0.2005 C.ar    
   3 C3             0.4735     0.0316    -1.1790 C.ar    
   4 C4             1.7647     0.5262    -1.1256 C.ar    
   5 C5             2.1431     1.3713    -0.0886 C.ar    
   6 C6             1.2094     1.7183     0.9005 C.ar    
   7 F7             0.1099    -0.7898    -2.1881 F       
   8 F8             2.6579     0.1874    -2.0809 F       
   9 N9             3.4399     1.8699    -0.0313 N.pl3   
  10 C10            4.4728     1.0755     0.4772 C.ar    
  11 C11            4.2145    -0.2276     0.8798 C.ar    
  12 C12            5.2369    -1.0103     1.3814 C.ar    
  13 C13            6.5172    -0.4975     1.4830 C.ar    
  14 C14            6.7797     0.8009     1.0830 C.ar    
  15 C15            5.7627     1.5878     0.5754 C.ar    
  16 F16            6.0189     2.8553     0.1845 F       
  17 I17            8.0627    -1.6891     2.2449 I       
  18 C18            1.5981     2.6130     2.0045 C.2     
  19 O19            2.6968     3.1346     2.0064 O.2     
  20 N20            0.7362     2.8536     3.0123 N.am    
  21 O21            1.1099     3.7136     4.0733 O.3     
  22 C22            0.1004     3.8780     5.0713 C.3     
  23 C23            0.6105     4.8218     6.1622 C.3     
  24 O24            0.8114     6.1242     5.6095 O.3     
  25 C25           -1.8536    -0.1712    -0.2701 C.3     
  26 N26           -1.8512    -1.5776     0.1400 N.am    
  27 O27           -1.9023    -2.6676    -0.7602 O.3     
  28 C28           -2.3242    -3.8303    -0.0220 C.3     
  29 C29           -1.8470    -3.5087     1.4129 C.3     
  30 C30           -1.7944    -1.9923     1.4211 C.2     
  31 O31           -1.7219    -1.2827     2.4020 O.2     
  32 H32           -0.8158     1.4771     1.5880 H       
  33 H33            3.6282     2.7686    -0.3440 H       
  34 H34            3.2151    -0.6293     0.8014 H       
  35 H35            5.0356    -2.0240     1.6948 H       
  36 H36            7.7806     1.1985     1.1636 H       
  37 H37           -0.1401     2.4377     3.0108 H       
  38 H38           -0.7956     4.2997     4.6158 H       
  39 H39           -0.1371     2.9092     5.5109 H       
  40 H40           -0.1230     4.8775     6.9665 H       
  41 H41            1.5542     4.4449     6.5565 H       
  42 H42            1.1351     6.7760     6.2462 H       
  43 H43           -2.4994     0.4005     0.3964 H       
  44 H44           -2.2243    -0.0913    -1.2920 H       
  45 H45           -3.4085    -3.9368    -0.0545 H       
  46 H46           -1.8347    -4.7277    -0.4006 H       
  47 H47           -2.5618    -3.8768     2.1489 H       
  48 H48           -0.8565    -3.9264     1.5929 H       
@<TRIPOS>BOND
   1    1    2 ar
   2    1    6 ar
   3    1   32 1
   4    2    3 ar
   5    2   25 1
   6    3    4 ar
   7    3    7 1
   8    4    5 ar
   9    4    8 1
  10    5    6 ar
  11    5    9 1
  12    6   18 1
  13    9   10 1
  14    9   33 1
  15   10   11 ar
  16   10   15 ar
  17   11   12 ar
  18   11   34 1
  19   12   13 ar
  20   12   35 1
  21   13   14 ar
  22   13   17 1
  23   14   15 ar
  24   14   36 1
  25   15   16 1
  26   18   19 2
  27   18   20 am
  28   20   21 1
  29   20   37 1
  30   21   22 1
  31   22   23 1
  32   22   38 1
  33   22   39 1
  34   23   24 1
  35   23   40 1
  36   23   41 1
  37   24   42 1
  38   25   26 1
  39   25   43 1
  40   25   44 1
  41   26   27 1
  42   26   30 am
  43   27   28 1
  44   28   29 1
  45   28   45 1
  46   28   46 1
  47   29   30 1
  48   29   47 1
  49   29   48 1
  50   30   31 2

#	End of record

