#	Name: ASD06590017
#	Creating user name:	WinNT
#	Creation time:	15. 06. 2019 21:06

#	Modifying user name:	WinNT
#	Modification time:	15. 06. 2019 21:06

#	Program:	/corina/corina34_cracker 3.40 0067  02.08.2006

@<TRIPOS>MOLECULE
ASD06590017
 304  307    0    0    0
SMALL
NO_CHARGES


@<TRIPOS>ATOM
   1 C1            -0.3095    -3.1664     1.7122 C.2     
   2 O2            -0.4556    -4.3542     1.9091 O.2     
   3 N3             2.0676    -3.6485     1.7904 N.am    
   4 C4             1.0769    -2.5837     1.6147 C.3     
   5 C5             1.2624    -1.9361     0.2410 C.3     
   6 C6             2.6222    -1.2368     0.1863 C.3     
   7 C7             2.8615    -0.6966    -1.2250 C.3     
   8 C8             2.6406    -0.0785     1.1857 C.3     
   9 C9            -3.6992    -2.0609     0.9057 C.2     
  10 O10           -3.3001    -1.0615     0.3462 O.2     
  11 N11           -1.3870    -2.3685     1.5751 N.am    
  12 C12           -2.7347    -2.9360     1.6639 C.3     
  13 C13           -3.1604    -3.0119     3.1315 C.3     
  14 C14           -7.3312    -1.7202     0.6694 C.2     
  15 O15           -7.5189    -2.4853     1.5915 O.2     
  16 N16           -5.0053    -2.3887     0.8493 N.am    
  17 C17           -5.9429    -1.5379     0.1122 C.3     
  18 C18           -5.9317    -1.9289    -1.3670 C.3     
  19 C19           -4.5764    -1.6312    -1.9550 C.ar    
  20 C20           -3.5864    -2.5961    -1.9304 C.ar    
  21 C21           -2.3431    -2.3256    -2.4683 C.ar    
  22 C22           -2.0884    -1.0846    -3.0340 C.ar    
  23 O23           -0.8663    -0.8162    -3.5642 O.3     
  24 C24           -3.0836    -0.1184    -3.0578 C.ar    
  25 C25           -4.3269    -0.3957    -2.5232 C.ar    
  26 C26          -10.7292    -0.8684    -0.3750 C.2     
  27 O27          -10.3618    -0.5121    -1.4745 O.2     
  28 N28           -8.3641    -1.0328     0.1431 N.am    
  29 C29           -9.7137    -1.2100     0.6848 C.3     
  30 C30           -9.9046    -0.2873     1.8903 C.3     
  31 C31           -8.9724    -0.7076     2.9972 C.ar    
  32 C32           -7.7033    -0.1652     3.0754 C.ar    
  33 C33           -6.8481    -0.5508     4.0907 C.ar    
  34 C34           -7.2622    -1.4785     5.0281 C.ar    
  35 C35           -8.5316    -2.0203     4.9505 C.ar    
  36 C36           -9.3883    -1.6314     3.9377 C.ar    
  37 C37          -14.3236    -0.2101    -0.4744 C.2     
  38 O38          -14.4104    -0.1921     0.7352 O.2     
  39 N39          -12.0457    -0.9589    -0.1009 N.am    
  40 C40          -13.0329    -0.6269    -1.1312 C.3     
  41 C41          -13.2818    -1.8523    -2.0128 C.3     
  42 C42          -12.0020    -2.2001    -2.7757 C.3     
  43 C43          -12.2509    -3.4256    -3.6573 C.3     
  44 N44          -11.0255    -3.7586    -4.3878 N.pl3   
  45 C45          -11.0080    -4.8307    -5.2483 C.2     
  46 N46          -12.0818    -5.5507    -5.4143 N.2     
  47 N47           -9.8580    -5.1432    -5.9338 N.pl3   
  48 C48          -17.7838     0.2999    -1.5375 C.2     
  49 O49          -17.5741    -0.1692    -2.6361 O.2     
  50 N50          -15.3816     0.1428    -1.2311 N.am    
  51 C51          -16.6363     0.5480    -0.5926 C.3     
  52 C52          -16.5743     2.0368    -0.2454 C.3     
  53 C53          -15.4901     2.2699     0.8086 C.3     
  54 C54          -15.4281     3.7587     1.1558 C.3     
  55 N55          -14.3899     3.9819     2.1651 N.pl3   
  56 C56          -14.1499     5.2514     2.6352 C.2     
  57 N57          -14.8461     6.2563     2.1830 N.2     
  58 N58          -13.1757     5.4609     3.5824 N.pl3   
  59 C59          -21.2993     1.2815    -1.7385 C.2     
  60 O60          -21.1913     2.0640    -0.8182 O.2     
  61 N61          -19.0430     0.5993    -1.1618 N.am    
  62 C62          -20.1585     0.3581    -2.0803 C.3     
  63 C63          -20.6214    -1.0943    -1.9502 C.3     
  64 C64          -19.5038    -2.0295    -2.4163 C.3     
  65 C65          -19.9180    -3.4817    -2.1702 C.3     
  66 C66          -19.2513    -1.8175    -3.9104 C.3     
  67 C67          -24.8453     1.5271    -2.5924 C.2     
  68 O68          -24.8431     0.4498    -3.1495 O.2     
  69 N69          -22.4397     1.2378    -2.4555 N.am    
  70 C70          -23.5488     2.1354    -2.1232 C.3     
  71 C71          -23.3383     3.4838    -2.8149 C.3     
  72 C72          -22.1065     4.1482    -2.2560 C.2     
  73 C73          -21.0510     4.5858    -2.9688 C.2     
  74 N74          -20.1632     5.1199    -2.0743 N.pl3   
  75 C75          -20.7075     4.9901    -0.8452 C.2     
  76 N76          -21.8719     4.4126    -0.9622 N.2     
  77 C77          -28.2788     2.6811    -3.0843 C.2     
  78 O78          -27.9766     3.8395    -2.8900 O.2     
  79 N79          -26.0072     2.1802    -2.3929 N.am    
  80 C80          -27.2676     1.5889    -2.8491 C.3     
  81 C81          -27.7948     0.6267    -1.7827 C.3     
  82 O82          -28.1267     1.3598    -0.6019 O.3     
  83 C83          -31.8927     2.8678    -3.6020 C.2     
  84 O84          -32.0757     1.6738    -3.7104 O.2     
  85 N85          -29.5192     2.3707    -3.5105 N.am    
  86 C86          -30.5023     3.4326    -3.7391 C.3     
  87 C87          -30.3197     4.0020    -5.1474 C.3     
  88 C88          -28.9139     4.5911    -5.2810 C.3     
  89 O89          -30.4925     2.9592    -6.1090 O.3     
  90 C90          -35.2758     4.2519    -3.6488 C.2     
  91 O91          -34.8747     5.3709    -3.8891 O.2     
  92 N92          -32.9329     3.6896    -3.3590 N.am    
  93 C93          -34.2962     3.1544    -3.3218 C.3     
  94 C94          -34.5912     2.6071    -1.9239 C.3     
  95 C95          -33.6792     1.4116    -1.6412 C.3     
  96 C96          -33.9743     0.8644    -0.2432 C.3     
  97 N97          -33.1010    -0.2803     0.0275 N.pl3   
  98 C98          -33.1857    -0.9402     1.2306 C.2     
  99 N99          -32.4087    -1.9587     1.4714 N.2     
 100 N100         -34.0899    -0.5259     2.1797 N.pl3   
 101 C101         -37.8964     5.8965    -2.9213 C.2     
 102 O102         -37.4085     5.6733    -1.8336 O.2     
 103 N103         -36.5976     3.9898    -3.6740 N.am    
 104 C104         -37.5418     5.0261    -4.0993 C.3     
 105 C105         -38.8096     4.3673    -4.6466 C.3     
 106 C106         -38.4713     3.5792    -5.8858 C.2     
 107 O107         -37.3194     3.4965    -6.2562 O.2     
 108 N108         -39.4489     2.9662    -6.5823 N.am    
 109 C109         -40.2262     7.1330    -1.1574 C.2     
 110 O110         -40.6944     6.0766    -1.5260 O.2     
 111 N111         -38.7558     6.9231    -3.0765 N.am    
 112 C112         -39.1006     7.7693    -1.9314 C.3     
 113 C113         -39.5396     9.1477    -2.4296 C.3     
 114 C114         -38.3761     9.8346    -3.0970 C.ar    
 115 C115         -38.1616     9.6682    -4.4527 C.ar    
 116 C116         -37.0955    10.2965    -5.0668 C.ar    
 117 C117         -36.2399    11.0953    -4.3220 C.ar    
 118 O118         -35.1907    11.7148    -4.9238 O.3     
 119 C119         -36.4576    11.2610    -2.9619 C.ar    
 120 C120         -37.5282    10.6347    -2.3536 C.ar    
 121 C121         -43.1248     7.5077     0.0778 C.2     
 122 O122         -43.1477     8.2276    -0.8924 O.2     
 123 N123         -40.7127     7.7377    -0.0555 N.am    
 124 C124         -41.8069     7.1191     0.6969 C.3     
 125 C125         -41.7637     7.6005     2.1485 C.3     
 126 C126         -42.8272     6.8611     2.9629 C.3     
 127 C127         -42.7020     7.2498     4.4374 C.3     
 128 C128         -42.0399     9.1047     2.1955 C.3     
 129 O129         -44.2733     7.0542     0.6042 O.3     
 130 C130           3.3029    -3.3520     2.2404 C.2     
 131 O131           3.5944    -2.2037     2.4999 O.2     
 132 C132          20.7236    -8.0240     7.3278 C.3     
 133 C133          19.6889    -6.9120     7.1443 C.3     
 134 C134          18.3805    -7.5130     6.6269 C.3     
 135 C135          17.3458    -6.4010     6.4434 C.3     
 136 C136          16.0375    -7.0021     5.9259 C.3     
 137 C137          15.0028    -5.8900     5.7424 C.3     
 138 C138          13.6944    -6.4911     5.2250 C.3     
 139 C139          12.6597    -5.3791     5.0415 C.3     
 140 C140          11.3513    -5.9802     4.5240 C.3     
 141 C141          10.3166    -4.8681     4.3405 C.3     
 142 C142           9.0082    -5.4692     3.8231 C.3     
 143 C143           7.9735    -4.3572     3.6396 C.3     
 144 C144           6.6652    -4.9583     3.1221 C.3     
 145 C145           5.6305    -3.8462     2.9386 C.3     
 146 C146           4.3221    -4.4473     2.4212 C.3     
 147 H147           1.8345    -4.5669     1.5829 H       
 148 H148           1.2103    -1.8314     2.3921 H       
 149 H149           1.2172    -2.7036    -0.5316 H       
 150 H150           0.4711    -1.2054     0.0739 H       
 151 H151           3.4074    -1.9488     0.4408 H       
 152 H152           2.0763     0.0153    -1.4795 H       
 153 H153           3.8302    -0.1985    -1.2640 H       
 154 H154           2.8484    -1.5219    -1.9370 H       
 155 H155           2.4701    -0.4633     2.1911 H       
 156 H156           3.6093     0.4197     1.1467 H       
 157 H157           1.8554     0.6334     0.9312 H       
 158 H158          -1.2702    -1.4186     1.4176 H       
 159 H159          -2.7365    -3.9371     1.2328 H       
 160 H160          -2.4628    -3.6449     3.6799 H       
 161 H161          -3.1586    -2.0108     3.5626 H       
 162 H162          -4.1632    -3.4341     3.1976 H       
 163 H163          -5.3244    -3.1880     1.2967 H       
 164 H164          -5.6444    -0.4946     0.2145 H       
 165 H165          -6.1434    -2.9938    -1.4629 H       
 166 H166          -6.6922    -1.3578    -1.8995 H       
 167 H167          -3.7852    -3.5620    -1.4900 H       
 168 H168          -1.5699    -3.0793    -2.4483 H       
 169 H169          -0.7866    -1.0396    -4.5017 H       
 170 H170          -2.8877     0.8485    -3.4972 H       
 171 H171          -5.1033     0.3547    -2.5454 H       
 172 H172          -8.2140    -0.4208    -0.5943 H       
 173 H173          -9.8474    -2.2461     0.9956 H       
 174 H174          -9.6841     0.7400     1.6001 H       
 175 H175         -10.9353    -0.3532     2.2387 H       
 176 H176          -7.3798     0.5596     2.3430 H       
 177 H177          -5.8564    -0.1276     4.1514 H       
 178 H178          -6.5939    -1.7803     5.8210 H       
 179 H179          -8.8550    -2.7453     5.6827 H       
 180 H180         -10.3814    -2.0519     3.8792 H       
 181 H181         -12.3396    -1.2439     0.7785 H       
 182 H182         -12.6566     0.1917    -1.7446 H       
 183 H183         -13.5731    -2.6965    -1.3878 H       
 184 H184         -14.0797    -1.6333    -2.7224 H       
 185 H185         -11.7108    -1.3560    -3.4007 H       
 186 H186         -11.2042    -2.4191    -2.0660 H       
 187 H187         -12.5422    -4.2697    -3.0323 H       
 188 H188         -13.0488    -3.2066    -4.3670 H       
 189 H189         -10.2264    -3.2228    -4.2643 H       
 190 H190         -12.0695    -6.3071    -6.0215 H       
 191 H191          -9.0589    -4.6074    -5.8103 H       
 192 H192          -9.8457    -5.8996    -6.5410 H       
 193 H193         -15.3122     0.1284    -2.1985 H       
 194 H194         -16.7841    -0.0318     0.3185 H       
 195 H195         -16.3383     2.6095    -1.1423 H       
 196 H196         -17.5386     2.3586     0.1479 H       
 197 H197         -15.7261     1.6972     1.7055 H       
 198 H198         -14.5258     1.9481     0.4153 H       
 199 H199         -15.1921     4.3314     0.2590 H       
 200 H200         -16.3924     4.0805     1.5491 H       
 201 H201         -13.8719     3.2341     2.5016 H       
 202 H202         -14.6767     7.1519     2.5147 H       
 203 H203         -12.6576     4.7130     3.9189 H       
 204 H204         -13.0063     6.3565     3.9141 H       
 205 H205         -19.2107     0.9745    -0.2831 H       
 206 H206         -19.8335     0.5456    -3.1037 H       
 207 H207         -20.8623    -1.3070    -0.9087 H       
 208 H208         -21.5065    -1.2502    -2.5670 H       
 209 H209         -18.5924    -1.8123    -1.8594 H       
 210 H210         -20.8295    -3.6989    -2.7271 H       
 211 H211         -19.1218    -4.1479    -2.5023 H       
 212 H212         -20.0979    -3.6327    -1.1058 H       
 213 H213         -20.1627    -2.0347    -4.4673 H       
 214 H214         -18.9562    -0.7830    -4.0858 H       
 215 H215         -18.4551    -2.4837    -4.2425 H       
 216 H216         -22.5261     0.6119    -3.1916 H       
 217 H217         -23.5862     2.2826    -1.0438 H       
 218 H218         -23.2122     3.3269    -3.8861 H       
 219 H219         -24.2055     4.1208    -2.6406 H       
 220 H220         -20.9285     4.5263    -4.0402 H       
 221 H221         -19.3036     5.5175    -2.2841 H       
 222 H222         -20.2557     5.3142     0.0807 H       
 223 H223         -26.0090     3.0418    -1.9474 H       
 224 H224         -27.0982     1.0443    -3.7780 H       
 225 H225         -28.6841     0.1203    -2.1580 H       
 226 H226         -27.0280    -0.1117    -1.5485 H       
 227 H227         -28.4684     0.8121     0.1181 H       
 228 H228         -29.7610     1.4443    -3.6658 H       
 229 H229         -30.3581     4.2254    -3.0051 H       
 230 H230         -31.0592     4.7835    -5.3220 H       
 231 H231         -28.1766     3.7917    -5.2080 H       
 232 H232         -28.8180     5.0868    -6.2470 H       
 233 H233         -28.7458     5.3144    -4.4831 H       
 234 H234         -31.3632     2.5394    -6.0817 H       
 235 H235         -32.7790     4.6354    -3.2087 H       
 236 H236         -34.3916     2.3523    -4.0537 H       
 237 H237         -34.4097     3.3858    -1.1831 H       
 238 H238         -35.6328     2.2902    -1.8701 H       
 239 H239         -33.8607     0.6330    -2.3820 H       
 240 H240         -32.6377     1.7285    -1.6949 H       
 241 H241         -33.7927     1.6431     0.4976 H       
 242 H242         -35.0158     0.5475    -0.1895 H       
 243 H243         -32.4630    -0.5726    -0.6422 H       
 244 H244         -32.4685    -2.4243     2.3202 H       
 245 H245         -34.6682     0.2320     2.0005 H       
 246 H246         -34.1497    -0.9915     3.0285 H       
 247 H247         -36.9237     3.1151    -3.4106 H       
 248 H248         -37.0846     5.6368    -4.8778 H       
 249 H249         -39.2259     3.6987    -3.8931 H       
 250 H250         -39.5412     5.1366    -4.8937 H       
 251 H251         -40.3701     3.0323    -6.2860 H       
 252 H252         -39.2311     2.4589    -7.3799 H       
 253 H253         -39.1461     7.1017    -3.9464 H       
 254 H254         -38.2302     7.8772    -1.2842 H       
 255 H255         -40.3533     9.0329    -3.1458 H       
 256 H256         -39.8803     9.7475    -1.5857 H       
 257 H257         -38.8279     9.0463    -5.0321 H       
 258 H258         -36.9279    10.1656    -6.1256 H       
 259 H259         -35.3970    12.5958    -5.2648 H       
 260 H260         -35.7928    11.8821    -2.3799 H       
 261 H261         -37.7007    10.7670    -1.2957 H       
 262 H262         -40.3383     8.5826     0.2393 H       
 263 H263         -41.6987     6.0348     0.6703 H       
 264 H264         -40.7786     7.3987     2.5691 H       
 265 H265         -43.8179     7.1327     2.5984 H       
 266 H266         -42.6833     5.7858     2.8571 H       
 267 H267         -43.4596     6.7230     5.0176 H       
 268 H268         -41.7113     6.9782     4.8019 H       
 269 H269         -42.8459     8.3250     4.5432 H       
 270 H270         -43.0250     9.3065     1.7749 H       
 271 H271         -42.0091     9.4476     3.2297 H       
 272 H272         -41.2823     9.6314     1.6153 H       
 273 H273         -45.0933     7.3305     0.1726 H       
 274 H274          21.6557    -7.5958     7.6965 H       
 275 H275          20.3496    -8.7533     8.0464 H       
 276 H276          20.9026    -8.5152     6.3714 H       
 277 H277          19.5099    -6.4208     8.1008 H       
 278 H278          20.0629    -6.1827     6.4257 H       
 279 H279          18.5595    -8.0042     5.6704 H       
 280 H280          18.0065    -8.2423     7.3455 H       
 281 H281          17.1668    -5.9098     7.3998 H       
 282 H282          17.7198    -5.6717     5.7248 H       
 283 H283          16.2165    -7.4933     4.9695 H       
 284 H284          15.6634    -7.7314     6.6445 H       
 285 H285          14.8237    -5.3989     6.6989 H       
 286 H286          15.3768    -5.1608     5.0238 H       
 287 H287          13.8734    -6.9823     4.2685 H       
 288 H288          13.3204    -7.2204     5.9436 H       
 289 H289          12.4807    -4.8879     5.9979 H       
 290 H290          13.0337    -4.6498     4.3229 H       
 291 H291          11.5303    -6.4714     3.5676 H       
 292 H292          10.9773    -6.7095     5.2426 H       
 293 H293          10.1376    -4.3770     5.2970 H       
 294 H294          10.6906    -4.1389     3.6219 H       
 295 H295           9.1873    -5.9604     2.8666 H       
 296 H296           8.6342    -6.1985     4.5417 H       
 297 H297           7.7945    -3.8660     4.5960 H       
 298 H298           8.3475    -3.6279     2.9210 H       
 299 H299           6.8442    -5.4495     2.1657 H       
 300 H300           6.2912    -5.6876     3.8407 H       
 301 H301           5.4514    -3.3551     3.8951 H       
 302 H302           6.0045    -3.1169     2.2200 H       
 303 H303           3.9481    -5.1766     3.1398 H       
 304 H304           4.5011    -4.9385     1.4647 H       
@<TRIPOS>BOND
   1    1    2 2
   2    1    4 1
   3    1   11 am
   4    3  130 am
   5    3    4 1
   6    3  147 1
   7    4    5 1
   8    4  148 1
   9    5    6 1
  10    5  149 1
  11    5  150 1
  12    6    7 1
  13    6    8 1
  14    6  151 1
  15    7  152 1
  16    7  153 1
  17    7  154 1
  18    8  155 1
  19    8  156 1
  20    8  157 1
  21    9   10 2
  22    9   12 1
  23    9   16 am
  24   11   12 1
  25   11  158 1
  26   12   13 1
  27   12  159 1
  28   13  160 1
  29   13  161 1
  30   13  162 1
  31   14   15 2
  32   14   17 1
  33   14   28 am
  34   16   17 1
  35   16  163 1
  36   17   18 1
  37   17  164 1
  38   18   19 1
  39   18  165 1
  40   18  166 1
  41   19   20 ar
  42   19   25 ar
  43   20   21 ar
  44   20  167 1
  45   21   22 ar
  46   21  168 1
  47   22   23 1
  48   22   24 ar
  49   23  169 1
  50   24   25 ar
  51   24  170 1
  52   25  171 1
  53   26   27 2
  54   26   29 1
  55   26   39 am
  56   28   29 1
  57   28  172 1
  58   29   30 1
  59   29  173 1
  60   30   31 1
  61   30  174 1
  62   30  175 1
  63   31   32 ar
  64   31   36 ar
  65   32   33 ar
  66   32  176 1
  67   33   34 ar
  68   33  177 1
  69   34   35 ar
  70   34  178 1
  71   35   36 ar
  72   35  179 1
  73   36  180 1
  74   37   38 2
  75   37   40 1
  76   37   50 am
  77   39   40 1
  78   39  181 1
  79   40   41 1
  80   40  182 1
  81   41   42 1
  82   41  183 1
  83   41  184 1
  84   42   43 1
  85   42  185 1
  86   42  186 1
  87   43   44 1
  88   43  187 1
  89   43  188 1
  90   44   45 1
  91   44  189 1
  92   45   46 2
  93   45   47 1
  94   46  190 1
  95   47  191 1
  96   47  192 1
  97   48   49 2
  98   48   51 1
  99   48   61 am
 100   50   51 1
 101   50  193 1
 102   51   52 1
 103   51  194 1
 104   52   53 1
 105   52  195 1
 106   52  196 1
 107   53   54 1
 108   53  197 1
 109   53  198 1
 110   54   55 1
 111   54  199 1
 112   54  200 1
 113   55   56 1
 114   55  201 1
 115   56   57 2
 116   56   58 1
 117   57  202 1
 118   58  203 1
 119   58  204 1
 120   59   60 2
 121   59   62 1
 122   59   69 am
 123   61   62 1
 124   61  205 1
 125   62   63 1
 126   62  206 1
 127   63   64 1
 128   63  207 1
 129   63  208 1
 130   64   65 1
 131   64   66 1
 132   64  209 1
 133   65  210 1
 134   65  211 1
 135   65  212 1
 136   66  213 1
 137   66  214 1
 138   66  215 1
 139   67   68 2
 140   67   70 1
 141   67   79 am
 142   69   70 1
 143   69  216 1
 144   70   71 1
 145   70  217 1
 146   71   72 1
 147   71  218 1
 148   71  219 1
 149   72   73 2
 150   72   76 1
 151   73   74 1
 152   73  220 1
 153   74   75 1
 154   74  221 1
 155   75   76 2
 156   75  222 1
 157   77   78 2
 158   77   80 1
 159   77   85 am
 160   79   80 1
 161   79  223 1
 162   80   81 1
 163   80  224 1
 164   81   82 1
 165   81  225 1
 166   81  226 1
 167   82  227 1
 168   83   84 2
 169   83   86 1
 170   83   92 am
 171   85   86 1
 172   85  228 1
 173   86   87 1
 174   86  229 1
 175   87   88 1
 176   87   89 1
 177   87  230 1
 178   88  231 1
 179   88  232 1
 180   88  233 1
 181   89  234 1
 182   90   91 2
 183   90   93 1
 184   90  103 am
 185   92   93 1
 186   92  235 1
 187   93   94 1
 188   93  236 1
 189   94   95 1
 190   94  237 1
 191   94  238 1
 192   95   96 1
 193   95  239 1
 194   95  240 1
 195   96   97 1
 196   96  241 1
 197   96  242 1
 198   97   98 1
 199   97  243 1
 200   98   99 2
 201   98  100 1
 202   99  244 1
 203  100  245 1
 204  100  246 1
 205  101  102 2
 206  101  104 1
 207  101  111 am
 208  103  104 1
 209  103  247 1
 210  104  105 1
 211  104  248 1
 212  105  106 1
 213  105  249 1
 214  105  250 1
 215  106  107 2
 216  106  108 am
 217  108  251 1
 218  108  252 1
 219  109  110 2
 220  109  112 1
 221  109  123 am
 222  111  112 1
 223  111  253 1
 224  112  113 1
 225  112  254 1
 226  113  114 1
 227  113  255 1
 228  113  256 1
 229  114  115 ar
 230  114  120 ar
 231  115  116 ar
 232  115  257 1
 233  116  117 ar
 234  116  258 1
 235  117  118 1
 236  117  119 ar
 237  118  259 1
 238  119  120 ar
 239  119  260 1
 240  120  261 1
 241  121  122 2
 242  121  124 1
 243  121  129 1
 244  123  124 1
 245  123  262 1
 246  124  125 1
 247  124  263 1
 248  125  126 1
 249  125  128 1
 250  125  264 1
 251  126  127 1
 252  126  265 1
 253  126  266 1
 254  127  267 1
 255  127  268 1
 256  127  269 1
 257  128  270 1
 258  128  271 1
 259  128  272 1
 260  129  273 1
 261  130  131 2
 262  130  146 1
 263  132  133 1
 264  132  274 1
 265  132  275 1
 266  132  276 1
 267  133  134 1
 268  133  277 1
 269  133  278 1
 270  134  135 1
 271  134  279 1
 272  134  280 1
 273  135  136 1
 274  135  281 1
 275  135  282 1
 276  136  137 1
 277  136  283 1
 278  136  284 1
 279  137  138 1
 280  137  285 1
 281  137  286 1
 282  138  139 1
 283  138  287 1
 284  138  288 1
 285  139  140 1
 286  139  289 1
 287  139  290 1
 288  140  141 1
 289  140  291 1
 290  140  292 1
 291  141  142 1
 292  141  293 1
 293  141  294 1
 294  142  143 1
 295  142  295 1
 296  142  296 1
 297  143  144 1
 298  143  297 1
 299  143  298 1
 300  144  145 1
 301  144  299 1
 302  144  300 1
 303  145  146 1
 304  145  301 1
 305  145  302 1
 306  146  303 1
 307  146  304 1

#	End of record

