#	Name: ASD03091973
#	Creating user name:	WinNT
#	Creation time:	15. 06. 2019 20:31

#	Modifying user name:	WinNT
#	Modification time:	15. 06. 2019 20:31

#	Program:	/corina/corina34_cracker 3.40 0067  02.08.2006

@<TRIPOS>MOLECULE
ASD03091973
  47   50    0    0    0
SMALL
NO_CHARGES


@<TRIPOS>ATOM
   1 C1            -0.0170     1.3998     0.0097 C.ar    
   2 C2            -1.2283     2.0682     0.0306 C.ar    
   3 C3            -2.4087     1.3494     0.0435 C.ar    
   4 C4            -2.3914    -0.0360     0.0356 C.ar    
   5 C5            -1.1918    -0.7183     0.0148 C.ar    
   6 C6             0.0021    -0.0041     0.0020 C.ar    
   7 O7             1.1631     2.0665     0.0021 O.3     
   8 C8             2.2620     1.4580     0.6804 C.3     
   9 N9             2.4081     0.0565     0.2863 N.am    
  10 C10            1.3144    -0.6822    -0.0142 C.2     
  11 C11           -3.6892    -0.8018     0.0501 C.3     
  12 C12           -4.1424    -1.0492    -1.3657 C.ar    
  13 C13           -4.9536    -0.1348    -2.0102 C.ar    
  14 C14           -3.7458    -2.1945    -2.0395 C.ar    
  15 C15           -4.1861    -2.3807    -3.3405 C.ar    
  16 C16           -5.0011    -1.4243    -3.9195 C.ar    
  17 N17           -5.3545    -0.3438    -3.2491 N.ar    
  18 O18            1.4088    -1.8630    -0.2883 O.2     
  19 C19            3.7406    -0.5484     0.2167 C.3     
  20 C20            3.8150    -1.7311     1.1845 C.3     
  21 Cl21          -5.5595    -1.6446    -5.5485 Cl      
  22 C22            5.2066    -2.3628     1.1119 C.3     
  23 C23            4.0045    -1.0383    -1.2085 C.3     
  24 C24            5.3961    -1.6701    -1.2812 C.3     
  25 C25            5.4705    -2.8527    -0.3133 C.3     
  26 O26            3.9351     0.0662    -2.1124 O.3     
  27 H27           -1.2513     3.1479     0.0371 H       
  28 H28           -3.3534     1.8725     0.0602 H       
  29 H29           -1.1800    -1.7983     0.0090 H       
  30 H30            3.1773     1.9966     0.4346 H       
  31 H31            2.0934     1.5120     1.7559 H       
  32 H32           -3.5425    -1.7558     0.5566 H       
  33 H33           -4.4468    -0.2228     0.5782 H       
  34 H34           -5.2632     0.7614    -1.4932 H       
  35 H35           -3.1084    -2.9240    -1.5619 H       
  36 H36           -3.8965    -3.2609    -3.8952 H       
  37 H37            4.4910     0.1931     0.4908 H       
  38 H38            3.6270    -1.3820     2.1999 H       
  39 H39            3.0646    -2.4726     0.9104 H       
  40 H40            5.9570    -1.6213     1.3860 H       
  41 H41            5.2596    -3.2053     1.8014 H       
  42 H42            3.2541    -1.7799    -1.4826 H       
  43 H43            5.5841    -2.0191    -2.2965 H       
  44 H44            6.1465    -0.9285    -1.0071 H       
  45 H45            6.4619    -3.3028    -0.3651 H       
  46 H46            4.7201    -3.5943    -0.5874 H       
  47 H47            4.0927    -0.1712    -3.0365 H       
@<TRIPOS>BOND
   1    1    6 ar
   2    1    7 1
   3    1    2 ar
   4    2    3 ar
   5    2   27 1
   6    3    4 ar
   7    3   28 1
   8    4    5 ar
   9    4   11 1
  10    5    6 ar
  11    5   29 1
  12    6   10 1
  13    7    8 1
  14    8    9 1
  15    8   30 1
  16    8   31 1
  17    9   10 am
  18    9   19 1
  19   10   18 2
  20   11   12 1
  21   11   32 1
  22   11   33 1
  23   12   14 ar
  24   12   13 ar
  25   13   17 ar
  26   13   34 1
  27   14   15 ar
  28   14   35 1
  29   15   16 ar
  30   15   36 1
  31   16   17 ar
  32   16   21 1
  33   19   23 1
  34   19   20 1
  35   19   37 1
  36   20   22 1
  37   20   38 1
  38   20   39 1
  39   22   25 1
  40   22   40 1
  41   22   41 1
  42   23   24 1
  43   23   26 1
  44   23   42 1
  45   24   25 1
  46   24   43 1
  47   24   44 1
  48   25   45 1
  49   25   46 1
  50   26   47 1

#	End of record

