#	Name: ASD01028578
#	Creating user name:	WinNT
#	Creation time:	15. 06. 2019 18:57

#	Modifying user name:	WinNT
#	Modification time:	15. 06. 2019 18:57

#	Program:	/corina/corina34_cracker 3.40 0067  02.08.2006

@<TRIPOS>MOLECULE
ASD01028578
  64   69    0    0    0
SMALL
NO_CHARGES


@<TRIPOS>ATOM
   1 N1            -0.0169     1.3921     0.0097 N.2     
   2 N2             0.0021    -0.0041     0.0020 N.pl3   
   3 C3             1.1087     2.0746     0.0026 C.2     
   4 C4             2.3555     1.4108    -0.0129 C.2     
   5 C5             2.4043     0.0531    -0.0206 C.2     
   6 C6             1.2004    -0.6774    -0.0130 C.2     
   7 N7             0.9138    -1.9689    -0.0176 N.2     
   8 N8            -0.3646    -2.1207    -0.0065 N.2     
   9 C9            -0.9590    -0.9535     0.0057 C.2     
  10 C10           -2.4466    -0.7132     0.0214 C.3     
  11 N11           -2.9153    -0.6434     1.4076 N.pl3   
  12 C12           -4.2593    -0.4274     1.6754 C.ar    
  13 C13           -5.1758    -0.2748     0.6482 C.ar    
  14 C14           -6.5150    -0.0596     0.9452 C.ar    
  15 N15           -6.9458     0.0051     2.1837 N.ar    
  16 C16           -6.1162    -0.1335     3.2231 C.ar    
  17 C17           -4.7367    -0.3620     3.0078 C.ar    
  18 C18           -6.5922    -0.0623     4.5456 C.ar    
  19 C19           -5.6919    -0.2126     5.5673 C.ar    
  20 C20           -4.3406    -0.4301     5.2784 C.ar    
  21 N21           -3.9079    -0.5017     4.0434 N.ar    
  22 O22           -6.1105    -0.1501     6.8583 O.3     
  23 C23            1.0674     3.5527     0.0105 C.2     
  24 C24           -5.1164    -0.3155     7.8714 C.3     
  25 C25           -5.7718    -0.2150     9.2503 C.3     
  26 C26           -4.7074    -0.3922    10.3350 C.3     
  27 C27           -0.0441     4.3659     0.0249 C.2     
  28 C28            0.2380     5.7096     0.0296 C.2     
  29 N29            1.4840     6.0814     0.0202 N.2     
  30 S30            2.4373     4.6775     0.0111 S.3     
  31 C31           -0.8708     6.7301     0.0446 C.3     
  32 N32           -5.3367    -0.2956    11.6589 N.3     
  33 C33           -4.3985    -0.6937    12.7184 C.3     
  34 C34           -5.0737    -0.5215    14.0816 C.3     
  35 O35           -6.2803    -1.2888    14.1106 O.3     
  36 C36           -7.2172    -0.9270    13.0924 C.3     
  37 C37           -6.5637    -1.1032    11.7192 C.3     
  38 H38            3.2712     1.9834    -0.0189 H       
  39 H39            3.3547    -0.4596    -0.0328 H       
  40 H40           -2.6682     0.2264    -0.4848 H       
  41 H41           -2.9522    -1.5308    -0.4924 H       
  42 H42           -2.2860    -0.7483     2.1383 H       
  43 H43           -4.8499    -0.3227    -0.3803 H       
  44 H44           -7.2208     0.0579     0.1362 H       
  45 H45           -7.6392     0.1067     4.7496 H       
  46 H46           -3.6392    -0.5472     6.0912 H       
  47 H47           -4.6463    -1.2930     7.7630 H       
  48 H48           -4.3613     0.4640     7.7703 H       
  49 H49           -6.2419     0.7624     9.3587 H       
  50 H50           -6.5269    -0.9946     9.3514 H       
  51 H51           -4.2373    -1.3696    10.2265 H       
  52 H52           -3.9524     0.3874    10.2339 H       
  53 H53           -1.0525     3.9793     0.0321 H       
  54 H54           -1.1291     6.9707     1.0759 H       
  55 H55           -0.5400     7.6337    -0.4674 H       
  56 H56           -1.7453     6.3239    -0.4637 H       
  57 H57           -4.1162    -1.7375    12.5813 H       
  58 H58           -3.5086    -0.0660    12.6712 H       
  59 H59           -4.4024    -0.8692    14.8668 H       
  60 H60           -5.3077     0.5310    14.2416 H       
  61 H61           -8.0961    -1.5679    13.1621 H       
  62 H62           -7.5135     0.1137    13.2236 H       
  63 H63           -7.2543    -0.7745    10.9425 H       
  64 H64           -6.3159    -2.1536    11.5661 H       
@<TRIPOS>BOND
   1    1    2 1
   2    1    3 2
   3    2    6 1
   4    2    9 1
   5    3    4 1
   6    3   23 1
   7    4    5 2
   8    4   38 1
   9    5    6 1
  10    5   39 1
  11    6    7 2
  12    7    8 1
  13    8    9 2
  14    9   10 1
  15   10   11 1
  16   10   40 1
  17   10   41 1
  18   11   12 1
  19   11   42 1
  20   12   13 ar
  21   12   17 ar
  22   13   14 ar
  23   13   43 1
  24   14   15 ar
  25   14   44 1
  26   15   16 ar
  27   16   17 ar
  28   16   18 ar
  29   17   21 ar
  30   18   19 ar
  31   18   45 1
  32   19   20 ar
  33   19   22 1
  34   20   21 ar
  35   20   46 1
  36   22   24 1
  37   23   27 2
  38   23   30 1
  39   24   25 1
  40   24   47 1
  41   24   48 1
  42   25   26 1
  43   25   49 1
  44   25   50 1
  45   26   32 1
  46   26   51 1
  47   26   52 1
  48   27   28 1
  49   27   53 1
  50   28   29 2
  51   28   31 1
  52   29   30 1
  53   31   54 1
  54   31   55 1
  55   31   56 1
  56   32   33 1
  57   32   37 1
  58   33   34 1
  59   33   57 1
  60   33   58 1
  61   34   35 1
  62   34   59 1
  63   34   60 1
  64   35   36 1
  65   36   37 1
  66   36   61 1
  67   36   62 1
  68   37   63 1
  69   37   64 1

#	End of record

