#	Name: ASD00170027
#	Creating user name:	WinNT
#	Creation time:	15. 06. 2019 18:31

#	Modifying user name:	WinNT
#	Modification time:	15. 06. 2019 18:31

#	Program:	/corina/corina34_cracker 3.40 0067  02.08.2006

@<TRIPOS>MOLECULE
ASD00170027
  26   27    0    0    0
SMALL
NO_CHARGES


@<TRIPOS>ATOM
   1 C1            -0.0191     1.3632    -0.1742 C.2     
   2 C2             0.0063     0.0014     0.0025 C.2     
   3 C3            -1.3113    -0.5607     0.2074 C.2     
   4 C4            -2.2752     0.3475     0.1836 C.2     
   5 S5            -1.6166     1.9511    -0.0864 S.3     
   6 C6             1.2356    -0.7967    -0.0150 C.2     
   7 C7             1.9274    -1.1064     1.2416 C.2     
   8 O8             1.6833    -1.2033    -1.0735 O.2     
   9 N9             1.0970     2.1490    -0.3878 N.pl3   
  10 S10            1.4784    -0.4993     2.8295 S.3     
  11 C11            2.7637    -1.3444     3.5677 C.2     
  12 C12            3.4691    -2.0299     2.6609 C.2     
  13 C13            3.0200    -1.9174     1.3659 C.2     
  14 C14           -1.5616    -2.0308     0.4253 C.3     
  15 C15           -3.7399     0.0447     0.3682 C.3     
  16 H16            1.9824     1.7547    -0.3493 H       
  17 H17            0.9952     3.0951    -0.5763 H       
  18 H18            2.9793    -1.3278     4.6258 H       
  19 H19            4.3260    -2.6311     2.9269 H       
  20 H20            3.4893    -2.4138     0.5293 H       
  21 H21           -1.5210    -2.2521     1.4918 H       
  22 H22           -2.5456    -2.2933     0.0369 H       
  23 H23           -0.7991    -2.6102    -0.0953 H       
  24 H24           -3.9927     0.1047     1.4268 H       
  25 H25           -4.3337     0.7694    -0.1888 H       
  26 H26           -3.9527    -0.9590     0.0002 H       
@<TRIPOS>BOND
   1    1    2 2
   2    1    9 1
   3    1    5 1
   4    2    3 1
   5    2    6 1
   6    3    4 2
   7    3   14 1
   8    4    5 1
   9    4   15 1
  10    6    7 1
  11    6    8 2
  12    7   10 1
  13    7   13 2
  14    9   16 1
  15    9   17 1
  16   10   11 1
  17   11   12 2
  18   11   18 1
  19   12   13 1
  20   12   19 1
  21   13   20 1
  22   14   21 1
  23   14   22 1
  24   14   23 1
  25   15   24 1
  26   15   25 1
  27   15   26 1

#	End of record

