#	Name: ASD01940715
#	Creating user name:	WinNT
#	Creation time:	15. 06. 2019 20:13

#	Modifying user name:	WinNT
#	Modification time:	15. 06. 2019 20:13

#	Program:	/corina/corina34_cracker 3.40 0067  02.08.2006

@<TRIPOS>MOLECULE
ASD01940715
  45   47    0    0    0
SMALL
NO_CHARGES


@<TRIPOS>ATOM
   1 C1             0.3563     0.3265    -1.2893 C.ar    
   2 C2             0.0620    -0.3272    -0.1069 C.ar    
   3 C3             0.8023    -0.0690     1.0341 C.ar    
   4 C4             1.8421     0.8462     0.9963 C.ar    
   5 C5             2.1422     1.5057    -0.1882 C.ar    
   6 C6             1.3953     1.2439    -1.3357 C.ar    
   7 N7             1.6940     1.9062    -2.5339 N.am    
   8 S8             0.4748     2.3348    -3.5693 S.o2    
   9 C9            -0.4761     3.5817    -2.6574 C.3     
  10 O10            1.1448     2.9277    -4.6733 O.2     
  11 O11           -0.2856     1.1447    -3.7269 O.2     
  12 F12            0.5101    -0.7102     2.1868 F       
  13 F13            2.5629     1.0970     2.1111 F       
  14 N14            3.1930     2.4324    -0.2299 N.pl3   
  15 C15            4.4461     2.0467    -0.7137 C.ar    
  16 C16            5.5120     2.9390    -0.6773 C.ar    
  17 C17            4.6311     0.7695    -1.2266 C.ar    
  18 C18            5.8709     0.3911    -1.7041 C.ar    
  19 C19            6.9281     1.2823    -1.6717 C.ar    
  20 C20            6.7493     2.5541    -1.1566 C.ar    
  21 Cl21           5.2881     4.5347    -0.0312 Cl      
  22 I22            8.8064     0.7026    -2.3960 I       
  23 C23           -1.7146     3.9711    -3.4669 C.3     
  24 C24           -2.5167     5.0228    -2.6978 C.3     
  25 C25           -2.9499     4.4473    -1.3480 C.3     
  26 C26           -1.7113     4.0578    -0.5385 C.3     
  27 C27           -0.9093     3.0061    -1.3076 C.3     
  28 H28           -0.2205     0.1192    -2.1785 H       
  29 H29           -0.7479    -1.0409    -0.0734 H       
  30 H30            2.6150     2.1136    -2.7569 H       
  31 H31            0.1435     4.4635    -2.4944 H       
  32 H32            3.0505     3.3415     0.0771 H       
  33 H33            3.8064     0.0725    -1.2518 H       
  34 H34            6.0150    -0.6021    -2.1031 H       
  35 H35            7.5767     3.2479    -1.1329 H       
  36 H36           -1.4060     4.3812    -4.4286 H       
  37 H37           -2.3342     3.0893    -3.6300 H       
  38 H38           -1.8971     5.9047    -2.5348 H       
  39 H39           -3.3990     5.3003    -3.2745 H       
  40 H40           -3.5212     5.1965    -0.8000 H       
  41 H41           -3.5694     3.5654    -1.5110 H       
  42 H42           -1.0918     4.9396    -0.3755 H       
  43 H43           -2.0200     3.6478     0.4231 H       
  44 H44           -1.5289     2.1243    -1.4707 H       
  45 H45           -0.0270     2.7286    -0.7309 H       
@<TRIPOS>BOND
   1    1    2 ar
   2    1    6 ar
   3    1   28 1
   4    2    3 ar
   5    2   29 1
   6    3    4 ar
   7    3   12 1
   8    4    5 ar
   9    4   13 1
  10    5    6 ar
  11    5   14 1
  12    6    7 1
  13    7    8 am
  14    7   30 1
  15    8    9 1
  16    8   10 2
  17    8   11 2
  18    9   23 1
  19    9   27 1
  20    9   31 1
  21   14   15 1
  22   14   32 1
  23   15   16 ar
  24   15   17 ar
  25   16   21 1
  26   16   20 ar
  27   17   18 ar
  28   17   33 1
  29   18   19 ar
  30   18   34 1
  31   19   20 ar
  32   19   22 1
  33   20   35 1
  34   23   24 1
  35   23   36 1
  36   23   37 1
  37   24   25 1
  38   24   38 1
  39   24   39 1
  40   25   26 1
  41   25   40 1
  42   25   41 1
  43   26   27 1
  44   26   42 1
  45   26   43 1
  46   27   44 1
  47   27   45 1

#	End of record

