#	Name: ASD01180082
#	Creating user name:	WinNT
#	Creation time:	15. 06. 2019 19:06

#	Modifying user name:	WinNT
#	Modification time:	15. 06. 2019 19:06

#	Program:	/corina/corina34_cracker 3.40 0067  02.08.2006

@<TRIPOS>MOLECULE
ASD01180082
  57   59    0    0    0
SMALL
NO_CHARGES


@<TRIPOS>ATOM
   1 C1             0.8547     1.5137    -0.6743 C.2     
   2 C2             0.7587     0.0126    -0.5819 C.3     
   3 C3             2.1616    -0.5936    -0.6551 C.3     
   4 O4             1.9344     2.0442    -0.7872 O.2     
   5 O5            -0.2597     2.2611    -0.6368 O.3     
   6 N6             2.0683    -2.0529    -0.5653 N.am    
   7 C7             3.1867    -2.8036    -0.6085 C.2     
   8 C8             3.0926    -4.2763    -0.5178 C.ar    
   9 C9             4.2490    -5.0566    -0.5623 C.ar    
  10 C10            4.1541    -6.4303    -0.4767 C.ar    
  11 C11            2.9162    -7.0346    -0.3475 C.ar    
  12 C12            1.7660    -6.2668    -0.3028 C.ar    
  13 C13            1.8474    -4.8919    -0.3815 C.ar    
  14 O14            4.2729    -2.2699    -0.7220 O.2     
  15 C15            2.8202    -8.5357    -0.2555 C.3     
  16 C16            2.6472    -8.9470     1.2080 C.3     
  17 C17            3.9146    -8.5959     1.9897 C.3     
  18 C18            3.6938    -8.8850     3.4758 C.3     
  19 N19            1.6683    -8.9999    -1.0326 N.pl3   
  20 N20            2.7438   -12.3800    -1.8035 N.ar    
  21 C21            2.7129   -11.1719    -1.2989 C.ar    
  22 C22            1.6710   -10.2818    -1.5875 C.ar    
  23 C23            0.6454   -10.6789    -2.4239 C.ar    
  24 C24            0.6937   -11.9799    -2.9569 C.ar    
  25 C25           -0.3125   -12.4543    -3.8142 C.ar    
  26 C26           -0.2321   -13.7195    -4.3110 C.ar    
  27 C27            0.8360   -14.5504    -3.9799 C.ar    
  28 C28            1.8283   -14.1231    -3.1520 C.ar    
  29 C29            1.7813   -12.8234    -2.6185 C.ar    
  30 C30            5.0821    -9.4396     1.4740 C.3     
  31 H31            0.2922    -0.2641     0.3636 H       
  32 H32            0.1563    -0.3645    -1.4083 H       
  33 H33            2.6281    -0.3169    -1.6006 H       
  34 H34            2.7640    -0.2165     0.1713 H       
  35 H35           -0.1478     3.2195    -0.6995 H       
  36 H36            1.2015    -2.4788    -0.4746 H       
  37 H37            5.2158    -4.5862    -0.6638 H       
  38 H38            5.0481    -7.0353    -0.5109 H       
  39 H39            0.8028    -6.7447    -0.2018 H       
  40 H40            0.9492    -4.2935    -0.3421 H       
  41 H41            3.7310    -8.9831    -0.6534 H       
  42 H42            1.7972    -8.4160     1.6366 H       
  43 H43            2.4709   -10.0211     1.2652 H       
  44 H44            4.1432    -7.5386     1.8553 H       
  45 H45            3.4653    -9.9423     3.6102 H       
  46 H46            4.5968    -8.6348     4.0327 H       
  47 H47            2.8621    -8.2839     3.8433 H       
  48 H48            0.9038    -8.4170    -1.1619 H       
  49 H49            3.5110   -10.8541    -0.6443 H       
  50 H50           -0.1691   -10.0106    -2.6610 H       
  51 H51           -1.1455   -11.8193    -4.0777 H       
  52 H52           -1.0064   -14.0837    -4.9700 H       
  53 H53            0.8772   -15.5501    -4.3865 H       
  54 H54            2.6492   -14.7804    -2.9061 H       
  55 H55            4.8150   -10.4954     1.5187 H       
  56 H56            5.3019    -9.1639     0.4426 H       
  57 H57            5.9611    -9.2606     2.0931 H       
@<TRIPOS>BOND
   1    1    2 1
   2    1    4 2
   3    1    5 1
   4    2    3 1
   5    2   31 1
   6    2   32 1
   7    3    6 1
   8    3   33 1
   9    3   34 1
  10    5   35 1
  11    6    7 am
  12    6   36 1
  13    7    8 1
  14    7   14 2
  15    8    9 ar
  16    8   13 ar
  17    9   10 ar
  18    9   37 1
  19   10   11 ar
  20   10   38 1
  21   11   12 ar
  22   11   15 1
  23   12   13 ar
  24   12   39 1
  25   13   40 1
  26   15   16 1
  27   15   19 1
  28   15   41 1
  29   16   17 1
  30   16   42 1
  31   16   43 1
  32   17   18 1
  33   17   30 1
  34   17   44 1
  35   18   45 1
  36   18   46 1
  37   18   47 1
  38   19   22 1
  39   19   48 1
  40   20   21 ar
  41   20   29 ar
  42   21   22 ar
  43   21   49 1
  44   22   23 ar
  45   23   24 ar
  46   23   50 1
  47   24   25 ar
  48   24   29 ar
  49   25   26 ar
  50   25   51 1
  51   26   27 ar
  52   26   52 1
  53   27   28 ar
  54   27   53 1
  55   28   29 ar
  56   28   54 1
  57   30   55 1
  58   30   56 1
  59   30   57 1

#	End of record

