#	Name: ASD01911033
#	Creating user name:	WinNT
#	Creation time:	15. 06. 2019 19:57

#	Modifying user name:	WinNT
#	Modification time:	15. 06. 2019 19:57

#	Program:	/corina/corina34_cracker 3.40 0067  02.08.2006

@<TRIPOS>MOLECULE
ASD01911033
  51   54    0    0    0
SMALL
NO_CHARGES


@<TRIPOS>ATOM
   1 N1            -4.7518    -3.3309     1.0064 N.3     
   2 C2            -3.5025    -2.6299     1.3314 C.3     
   3 C3            -2.6796    -2.4402     0.0527 C.3     
   4 N4            -3.5232    -1.7743    -0.9514 N.am    
   5 C5            -4.8507    -2.3421    -1.2318 C.3     
   6 C6            -5.5881    -2.5356     0.0974 C.3     
   7 C7            -3.0915    -0.6728    -1.5969 C.2     
   8 C8            -3.8996    -0.0921    -2.6876 C.ar    
   9 C9            -4.0112     1.2963    -2.8122 C.ar    
  10 C10           -4.7637     1.8438    -3.8286 C.ar    
  11 C11           -5.4164     1.0220    -4.7361 C.ar    
  12 C12           -5.3116    -0.3740    -4.6210 C.ar    
  13 C13           -4.5467    -0.9278    -3.5969 C.ar    
  14 C14           -5.9842    -1.2247    -5.5563 C.1     
  15 O15           -2.0366    -0.1574    -1.2812 O.2     
  16 C16           -6.5355    -1.9221    -6.3230 C.1     
  17 C17           -7.2080    -2.7728    -7.2583 C.ar    
  18 C18           -7.1152    -4.1683    -7.1595 C.ar    
  19 C19           -7.7792    -4.9484    -8.0818 C.ar    
  20 N20           -8.4935    -4.3990    -9.0461 N.ar    
  21 C21           -8.6078    -3.0905    -9.1759 C.ar    
  22 C22           -7.9826    -2.2340    -8.2952 C.ar    
  23 C23           -5.4470    -3.6643     2.1559 C.ar    
  24 O24           -6.1559     1.5665    -5.7339 O.3     
  25 N25           -6.6023    -4.3042     2.0503 N.ar    
  26 C26           -7.2917    -4.6374     3.1289 C.ar    
  27 C27           -6.7915    -4.3092     4.3792 C.ar    
  28 C28           -5.5801    -3.6397     4.4534 C.ar    
  29 N29           -4.9387    -3.3407     3.3358 N.ar    
  30 C30           -6.2188     2.9930    -5.7905 C.3     
  31 H31           -3.7335    -1.6560     1.7631 H       
  32 H32           -2.9305    -3.2194     2.0479 H       
  33 H33           -1.8078    -1.8219     0.2666 H       
  34 H34           -2.3594    -3.4116    -0.3242 H       
  35 H35           -5.4144    -1.6589    -1.8671 H       
  36 H36           -4.7393    -3.3041    -1.7322 H       
  37 H37           -6.5287    -3.0568    -0.0809 H       
  38 H38           -5.7901    -1.5631     0.5463 H       
  39 H39           -3.5061     1.9419    -2.1091 H       
  40 H40           -4.8460     2.9169    -3.9189 H       
  41 H41           -4.4617    -2.0003    -3.5029 H       
  42 H42           -6.5323    -4.6248    -6.3733 H       
  43 H43           -7.7138    -6.0244    -8.0146 H       
  44 H44           -9.2029    -2.6853    -9.9810 H       
  45 H45           -8.0809    -1.1644    -8.4074 H       
  46 H46           -8.2330    -5.1587     3.0365 H       
  47 H47           -7.3341    -4.5690     5.2761 H       
  48 H48           -5.1630    -3.3691     5.4121 H       
  49 H49           -5.2141     3.3963    -5.9170 H       
  50 H50           -6.8407     3.2961    -6.6329 H       
  51 H51           -6.6497     3.3747    -4.8649 H       
@<TRIPOS>BOND
   1    1    2 1
   2    1   23 1
   3    1    6 1
   4    2    3 1
   5    2   31 1
   6    2   32 1
   7    3    4 1
   8    3   33 1
   9    3   34 1
  10    4    5 1
  11    4    7 am
  12    5    6 1
  13    5   35 1
  14    5   36 1
  15    6   37 1
  16    6   38 1
  17    7    8 1
  18    7   15 2
  19    8    9 ar
  20    8   13 ar
  21    9   10 ar
  22    9   39 1
  23   10   11 ar
  24   10   40 1
  25   11   12 ar
  26   11   24 1
  27   12   13 ar
  28   12   14 1
  29   13   41 1
  30   14   16 3
  31   16   17 1
  32   17   18 ar
  33   17   22 ar
  34   18   19 ar
  35   18   42 1
  36   19   20 ar
  37   19   43 1
  38   20   21 ar
  39   21   22 ar
  40   21   44 1
  41   22   45 1
  42   23   25 ar
  43   23   29 ar
  44   24   30 1
  45   25   26 ar
  46   26   27 ar
  47   26   46 1
  48   27   28 ar
  49   27   47 1
  50   28   29 ar
  51   28   48 1
  52   30   49 1
  53   30   50 1
  54   30   51 1

#	End of record

