#	Name: ASD01150437
#	Creating user name:	WinNT
#	Creation time:	15. 06. 2019 19:04

#	Modifying user name:	WinNT
#	Modification time:	15. 06. 2019 19:04

#	Program:	/corina/corina34_cracker 3.40 0067  02.08.2006

@<TRIPOS>MOLECULE
ASD01150437
  46   48    0    0    0
SMALL
NO_CHARGES


@<TRIPOS>ATOM
   1 C1            -0.0168     1.3855     0.0097 C.ar    
   2 C2             0.0021    -0.0041     0.0020 C.ar    
   3 C3            -1.1901    -0.7121     0.0101 C.ar    
   4 C4            -2.3975    -0.0385     0.0257 C.ar    
   5 C5            -2.4228     1.3428     0.0334 C.ar    
   6 C6            -1.2340     2.0606     0.0307 C.ar    
   7 N7            -1.2597     3.4607     0.0390 N.am    
   8 C8            -1.9373     4.1055     1.0050 C.2     
   9 N9            -1.9826     5.4502     1.0435 N.am    
  10 C10           -1.3418     6.1752     0.1033 C.2     
  11 C11           -0.5990     5.4763    -0.9558 C.2     
  12 N12           -0.5748     4.1693    -0.9552 N.2     
  13 O13           -1.3785     7.3914     0.1312 O.2     
  14 C14           -2.7288     6.1271     2.1071 C.3     
  15 O15           -2.5193     3.4629     1.8580 O.2     
  16 C16           -1.8168     6.3754     3.2808 C.ar    
  17 C17           -1.0935     7.5510     3.3573 C.ar    
  18 C18           -0.2569     7.7793     4.4335 C.ar    
  19 C19           -0.1434     6.8310     5.4345 C.ar    
  20 C20           -0.8675     5.6546     5.3574 C.ar    
  21 C21           -1.7081     5.4299     4.2835 C.ar    
  22 O22            0.0561     6.1781    -1.9172 O.3     
  23 C23            0.7537     5.4230    -2.9098 C.3     
  24 Cl24           0.9076     7.1168     6.7863 Cl      
  25 O25            1.1507     2.0838     0.0023 O.3     
  26 C26            1.6953     2.4236    -1.2744 C.3     
  27 O27            1.1885    -0.6687    -0.0138 O.3     
  28 C28            1.1322    -2.0966    -0.0209 C.3     
  29 H29           -1.1756    -1.7920     0.0038 H       
  30 H30           -3.3237    -0.5939     0.0316 H       
  31 H31           -3.3681     1.8650     0.0456 H       
  32 H32           -3.1094     7.0784     1.7351 H       
  33 H33           -3.5630     5.4999     2.4215 H       
  34 H34           -1.1819     8.2911     2.5757 H       
  35 H35            0.3084     8.6977     4.4929 H       
  36 H36           -0.7794     4.9140     6.1385 H       
  37 H37           -2.2734     4.5117     4.2232 H       
  38 H38            1.5126     4.8053    -2.4296 H       
  39 H39            0.0490     4.7843    -3.4423 H       
  40 H40            1.2316     6.1034    -3.6145 H       
  41 H41            1.8954     1.5125    -1.8383 H       
  42 H42            0.9819     3.0401    -1.8214 H       
  43 H43            2.6240     2.9775    -1.1375 H       
  44 H44            0.6136    -2.4442     0.8727 H       
  45 H45            0.5952    -2.4346    -0.9072 H       
  46 H46            2.1446    -2.5001    -0.0335 H       
@<TRIPOS>BOND
   1    1    2 ar
   2    1   25 1
   3    1    6 ar
   4    2    3 ar
   5    2   27 1
   6    3    4 ar
   7    3   29 1
   8    4    5 ar
   9    4   30 1
  10    5    6 ar
  11    5   31 1
  12    6    7 1
  13    7    8 am
  14    7   12 1
  15    8    9 am
  16    8   15 2
  17    9   10 am
  18    9   14 1
  19   10   11 1
  20   10   13 2
  21   11   12 2
  22   11   22 1
  23   14   16 1
  24   14   32 1
  25   14   33 1
  26   16   17 ar
  27   16   21 ar
  28   17   18 ar
  29   17   34 1
  30   18   19 ar
  31   18   35 1
  32   19   20 ar
  33   19   24 1
  34   20   21 ar
  35   20   36 1
  36   21   37 1
  37   22   23 1
  38   23   38 1
  39   23   39 1
  40   23   40 1
  41   25   26 1
  42   26   41 1
  43   26   42 1
  44   26   43 1
  45   27   28 1
  46   28   44 1
  47   28   45 1
  48   28   46 1

#	End of record

