#	Name: ASD05490036
#	Creating user name:	WinNT
#	Creation time:	15. 06. 2019 21:00

#	Modifying user name:	WinNT
#	Modification time:	15. 06. 2019 21:00

#	Program:	/corina/corina34_cracker 3.40 0067  02.08.2006

@<TRIPOS>MOLECULE
ASD05490036
  65   68    0    0    0
SMALL
NO_CHARGES


@<TRIPOS>ATOM
   1 O1            -0.0173     1.4248     0.0099 O.3     
   2 N2             2.7241     5.3595     0.0030 N.pl3   
   3 N3             2.2883     1.3280    -0.0127 N.ar    
   4 C4             3.4877     1.9005    -0.0215 C.ar    
   5 C5             1.1818     2.0565     0.0018 C.ar    
   6 N6             1.2068     3.3779     0.0082 N.ar    
   7 C7             2.3634     4.0326     0.0003 C.ar    
   8 C8             3.5624     3.3026    -0.0151 C.ar    
   9 N9             4.6391     1.1308    -0.0361 N.pl3   
  10 C10            4.0899     5.4129    -0.0163 C.2     
  11 N11            4.5806     4.2015    -0.0210 N.2     
  12 C12            1.8119     6.5058     0.0175 C.3     
  13 C13            1.5133     6.8921     1.4432 C.ar    
  14 C14            0.0021    -0.0041     0.0020 C.3     
  15 C15           -1.4333    -0.5336     0.0129 C.3     
  16 C16           -1.4126    -2.0635     0.0045 C.3     
  17 C17           -2.8479    -2.5931     0.0153 C.3     
  18 C18            2.3154     7.8159     2.0896 C.ar    
  19 C19            2.0466     8.1732     3.3949 C.ar    
  20 C20            0.9644     7.6020     4.0623 C.ar    
  21 C21            0.1593     6.6723     3.4062 C.ar    
  22 C22            0.4345     6.3259     2.0992 C.ar    
  23 B23            0.6535     8.0041     5.5478 Du      
  24 O24           -0.4099     7.5202     6.3804 O.3     
  25 C25           -0.8608     8.6816     7.1089 C.3     
  26 C26            0.3467     9.6411     7.1019 C.3     
  27 O27            1.3744     8.9311     6.3720 O.3     
  28 C28           -0.0137    10.9464     6.3898 C.3     
  29 C29            0.8117     9.9233     8.5319 C.3     
  30 C30           -2.0560     9.3237     6.4017 C.3     
  31 C31           -1.2305     8.3005     8.5438 C.3     
  32 O32            4.8243     6.5500    -0.0203 O.3     
  33 C33            6.2458     6.4042    -0.0300 C.3     
  34 H34            4.5753     0.1629    -0.0401 H       
  35 H35            5.5091     1.5596    -0.0425 H       
  36 H36            2.2770     7.3467    -0.4969 H       
  37 H37            0.8842     6.2383    -0.4884 H       
  38 H38            0.5123    -0.3556    -0.8948 H       
  39 H39            0.5293    -0.3651     0.8851 H       
  40 H40           -1.9435    -0.1821     0.9097 H       
  41 H41           -1.9605    -0.1726    -0.8702 H       
  42 H42           -0.9024    -2.4150    -0.8923 H       
  43 H43           -0.8854    -2.4246     0.8875 H       
  44 H44           -3.3581    -2.2415     0.9121 H       
  45 H45           -3.3751    -2.2320    -0.8677 H       
  46 H46           -2.8332    -3.6829     0.0093 H       
  47 H47            3.1537     8.2578     1.5715 H       
  48 H48            2.6738     8.8938     3.8986 H       
  49 H49           -0.6803     6.2265     3.9187 H       
  50 H50           -0.1885     5.6056     1.5899 H       
  51 H51           -0.8447    11.4253     6.9077 H       
  52 H52            0.8490    11.6126     6.3935 H       
  53 H53           -0.3023    10.7314     5.3609 H       
  54 H54            1.1039     8.9884     9.0101 H       
  55 H55            1.6644    10.6019     8.5095 H       
  56 H56           -0.0019    10.3806     9.0949 H       
  57 H57           -2.8810     8.6123     6.3641 H       
  58 H58           -2.3676    10.2129     6.9496 H       
  59 H59           -1.7708     9.6032     5.3875 H       
  60 H60           -0.3643     7.8599     9.0374 H       
  61 H61           -1.5439     9.1919     9.0872 H       
  62 H62           -2.0467     7.5783     8.5290 H       
  63 H63            6.7121     7.3894    -0.0323 H       
  64 H64            6.5608     5.8553     0.8575 H       
  65 H65            6.5488     5.8567    -0.9224 H       
@<TRIPOS>BOND
   1    1   14 1
   2    1    5 1
   3    2   12 1
   4    2    7 1
   5    2   10 1
   6    3    4 ar
   7    3    5 ar
   8    4    9 1
   9    4    8 ar
  10    5    6 ar
  11    6    7 ar
  12    7    8 ar
  13    8   11 1
  14    9   34 1
  15    9   35 1
  16   10   11 2
  17   10   32 1
  18   12   13 1
  19   12   36 1
  20   12   37 1
  21   13   18 ar
  22   13   22 ar
  23   14   15 1
  24   14   38 1
  25   14   39 1
  26   15   16 1
  27   15   40 1
  28   15   41 1
  29   16   17 1
  30   16   42 1
  31   16   43 1
  32   17   44 1
  33   17   45 1
  34   17   46 1
  35   18   19 ar
  36   18   47 1
  37   19   20 ar
  38   19   48 1
  39   20   21 ar
  40   20   23 1
  41   21   22 ar
  42   21   49 1
  43   22   50 1
  44   23   24 1
  45   23   27 1
  46   24   25 1
  47   25   26 1
  48   25   30 1
  49   25   31 1
  50   26   27 1
  51   26   28 1
  52   26   29 1
  53   28   51 1
  54   28   52 1
  55   28   53 1
  56   29   54 1
  57   29   55 1
  58   29   56 1
  59   30   57 1
  60   30   58 1
  61   30   59 1
  62   31   60 1
  63   31   61 1
  64   31   62 1
  65   32   33 1
  66   33   63 1
  67   33   64 1
  68   33   65 1

#	End of record

