#	Name: ASD01915166
#	Creating user name:	WinNT
#	Creation time:	15. 06. 2019 20:04

#	Modifying user name:	WinNT
#	Modification time:	15. 06. 2019 20:04

#	Program:	/corina/corina34_cracker 3.40 0067  02.08.2006

@<TRIPOS>MOLECULE
ASD01915166
  41   44    0    0    0
SMALL
NO_CHARGES


@<TRIPOS>ATOM
   1 C1            -0.0892     1.1287    -0.0830 C.ar    
   2 C2            -0.1025    -0.2540    -0.0564 C.ar    
   3 C3            -1.3039    -0.9385    -0.0127 C.ar    
   4 C4            -2.4963    -0.2441     0.0050 C.ar    
   5 C5            -2.4888     1.1491    -0.0212 C.ar    
   6 C6            -1.2760     1.8334    -0.0604 C.ar    
   7 C7            -3.7681     1.9013    -0.0024 C.2     
   8 N8            -5.0109     1.3703     0.0394 N.2     
   9 C9            -5.8302     2.3922     0.0422 C.2     
  10 O10           -5.0802     3.4980     0.0027 O.3     
  11 N11           -3.9042     3.2017    -0.0175 N.2     
  12 C12           -7.3355     2.3325     0.0816 C.3     
  13 C13           -7.9518     3.0335     1.3058 C.3     
  14 N14           -8.9591     3.5662     0.3680 N.am    
  15 C15           -8.0213     3.4222    -0.7623 C.3     
  16 C16          -10.2265     4.0071     0.4935 C.2     
  17 C17          -10.9213     4.6005    -0.6689 C.ar    
  18 O18          -10.7984     3.9169     1.5623 O.2     
  19 C19          -10.2258     4.8353    -1.8559 C.ar    
  20 C20          -10.8789     5.3893    -2.9378 C.ar    
  21 C21          -12.2206     5.7125    -2.8490 C.ar    
  22 C22          -12.9182     5.4828    -1.6736 C.ar    
  23 C23          -12.2767     4.9228    -0.5854 C.ar    
  24 C24            1.2234     1.8674    -0.1306 C.3     
  25 F25          -14.2286     5.8014    -1.5936 F       
  26 H26            0.8284    -0.8014    -0.0701 H       
  27 H27           -1.3086    -2.0183     0.0072 H       
  28 H28           -3.4337    -0.7795     0.0387 H       
  29 H29           -1.2645     2.9131    -0.0805 H       
  30 H30           -7.7257     1.3298    -0.0926 H       
  31 H31           -8.3608     2.3459     2.0460 H       
  32 H32           -7.3104     3.7988     1.7429 H       
  33 H33           -7.4003     4.3017    -0.9327 H       
  34 H34           -8.4858     3.0450    -1.6734 H       
  35 H35           -9.1779     4.5840    -1.9274 H       
  36 H36          -10.3407     5.5714    -3.8563 H       
  37 H37          -12.7269     6.1459    -3.6988 H       
  38 H38          -12.8204     4.7436     0.3304 H       
  39 H39            1.5137     2.0260    -1.1692 H       
  40 H40            1.1164     2.8308     0.3679 H       
  41 H41            1.9896     1.2798     0.3751 H       
@<TRIPOS>BOND
   1    1    2 ar
   2    1   24 1
   3    1    6 ar
   4    2    3 ar
   5    2   26 1
   6    3    4 ar
   7    3   27 1
   8    4    5 ar
   9    4   28 1
  10    5    6 ar
  11    5    7 1
  12    6   29 1
  13    7    8 1
  14    7   11 2
  15    8    9 2
  16    9   10 1
  17    9   12 1
  18   10   11 1
  19   12   13 1
  20   12   15 1
  21   12   30 1
  22   13   14 1
  23   13   31 1
  24   13   32 1
  25   14   15 1
  26   14   16 am
  27   15   33 1
  28   15   34 1
  29   16   17 1
  30   16   18 2
  31   17   19 ar
  32   17   23 ar
  33   19   20 ar
  34   19   35 1
  35   20   21 ar
  36   20   36 1
  37   21   22 ar
  38   21   37 1
  39   22   23 ar
  40   22   25 1
  41   23   38 1
  42   24   39 1
  43   24   40 1
  44   24   41 1

#	End of record

