#	Name: ASD01911146
#	Creating user name:	WinNT
#	Creation time:	15. 06. 2019 19:57

#	Modifying user name:	WinNT
#	Modification time:	15. 06. 2019 19:57

#	Program:	/corina/corina34_cracker 3.40 0067  02.08.2006

@<TRIPOS>MOLECULE
ASD01911146
  36   37    0    0    0
SMALL
NO_CHARGES


@<TRIPOS>ATOM
   1 C1            -0.0168     1.3857     0.0097 C.ar    
   2 C2             0.0021    -0.0041     0.0020 C.ar    
   3 C3             1.2122    -0.6877    -0.0128 C.ar    
   4 C4             2.3995     0.0094    -0.0204 C.ar    
   5 C5             2.3864     1.4093    -0.0133 C.ar    
   6 C6             1.1646     2.0928     0.0022 C.ar    
   7 C7             3.6502     2.1586    -0.0213 C.2     
   8 N8             3.6352     3.4664    -0.0146 N.2     
   9 N9             4.7449     4.1242    -0.0217 N.2     
  10 C10            4.7299     5.4320    -0.0150 C.2     
  11 C11            5.9937     6.1812    -0.0231 C.ar    
  12 C12            5.9806     7.5811    -0.0159 C.ar    
  13 C13            7.2155     5.4977    -0.0322 C.ar    
  14 C14            8.3969     6.2048    -0.0398 C.ar    
  15 C15            8.3780     7.5946    -0.0380 C.ar    
  16 C16            7.1679     8.2782    -0.0236 C.ar    
  17 O17           -1.1659    -0.6965     0.0095 O.3     
  18 C18           -1.0748    -2.1225     0.0010 C.3     
  19 O19            9.5460     8.2870    -0.0451 O.3     
  20 C20            9.4548     9.7131    -0.0427 C.3     
  21 H21           -0.9599     1.9120     0.0170 H       
  22 H22            1.2212    -1.7676    -0.0180 H       
  23 H23            3.3392    -0.5227    -0.0316 H       
  24 H24            1.1489     3.1727     0.0074 H       
  25 H25            4.5916     1.6294    -0.0329 H       
  26 H26            3.7885     5.9611    -0.0035 H       
  27 H27            5.0408     8.1132    -0.0047 H       
  28 H28            7.2313     4.4178    -0.0329 H       
  29 H29            9.3400     5.6785    -0.0469 H       
  30 H30            7.1588     9.3582    -0.0222 H       
  31 H31           -0.5474    -2.4475    -0.8959 H       
  32 H32           -0.5303    -2.4571     0.8840 H       
  33 H33           -2.0771    -2.5507     0.0083 H       
  34 H34            8.9128    10.0440    -0.9286 H       
  35 H35            8.9249    10.0418     0.8513 H       
  36 H36           10.4572    10.1412    -0.0490 H       
@<TRIPOS>BOND
   1    1    2 ar
   2    1    6 ar
   3    1   21 1
   4    2    3 ar
   5    2   17 1
   6    3    4 ar
   7    3   22 1
   8    4    5 ar
   9    4   23 1
  10    5    6 ar
  11    5    7 1
  12    6   24 1
  13    7    8 2
  14    7   25 1
  15    8    9 1
  16    9   10 2
  17   10   11 1
  18   10   26 1
  19   11   12 ar
  20   11   13 ar
  21   12   16 ar
  22   12   27 1
  23   13   14 ar
  24   13   28 1
  25   14   15 ar
  26   14   29 1
  27   15   16 ar
  28   15   19 1
  29   16   30 1
  30   17   18 1
  31   18   31 1
  32   18   32 1
  33   18   33 1
  34   19   20 1
  35   20   34 1
  36   20   35 1
  37   20   36 1

#	End of record

