#	Name: ASD01811473
#	Creating user name:	WinNT
#	Creation time:	15. 06. 2019 19:26

#	Modifying user name:	WinNT
#	Modification time:	15. 06. 2019 19:26

#	Program:	/corina/corina34_cracker 3.40 0067  02.08.2006

@<TRIPOS>MOLECULE
ASD01811473
  62   66    0    0    0
SMALL
NO_CHARGES


@<TRIPOS>ATOM
   1 C1             4.8031    13.9897    -3.3419 C.1     
   2 C2             3.9417    13.0041    -2.7613 C.ar    
   3 C3             4.4669    11.7907    -2.3123 C.ar    
   4 C4             3.6313    10.8457    -1.7540 C.ar    
   5 C5             2.2757    11.0977    -1.6389 C.ar    
   6 C6             1.7486    12.2978    -2.0822 C.ar    
   7 C7             2.5737    13.2544    -2.6363 C.ar    
   8 N8             5.4865    14.7716    -3.8026 N.1     
   9 N9            -1.1373     9.0685    -0.1713 N.am    
  10 C10           -0.2086     9.5775     0.8471 C.3     
  11 C11            0.6854    10.6456     0.2094 C.3     
  12 C12            1.3691    10.0603    -1.0283 C.3     
  13 C13            0.3087     9.6448    -2.0506 C.3     
  14 C14           -0.5896     8.5653    -1.4385 C.3     
  15 C15           -2.4659     9.0581     0.0547 C.2     
  16 C16           -2.9938     9.4530     1.3783 C.ar    
  17 C17           -4.1229    10.2650     1.4659 C.ar    
  18 C18           -4.6135    10.6324     2.7164 C.ar    
  19 C19           -3.9721    10.1855     3.8736 C.ar    
  20 C20           -2.8538     9.3811     3.7800 C.ar    
  21 C21           -2.3654     9.0083     2.5434 C.ar    
  22 O22           -3.2302     8.7241    -0.8294 O.2     
  23 C23           -8.5283    13.6348     1.5969 C.3     
  24 C24           -7.4964    12.7928     2.3012 C.2     
  25 C25           -7.4700    12.6010     3.6422 C.2     
  26 C26           -8.4779    13.2204     4.5804 C.3     
  27 C27           -9.1961    14.3462     3.8236 C.3     
  28 N28           -9.6567    13.8499     2.5192 N.3     
  29 C29           -5.8112    11.4945     2.8187 C.2     
  30 N30           -6.4523    12.0999     1.7738 N.pl3   
  31 N31           -6.4409    11.8096     3.9323 N.2     
  32 C32          -10.6510    14.7578     1.9318 C.3     
  33 C33           -4.5014    10.5825     5.2276 C.3     
  34 H34            5.5247    11.5924    -2.4022 H       
  35 H35            4.0362     9.9067    -1.4063 H       
  36 H36            0.6895    12.4879    -1.9896 H       
  37 H37            2.1618    14.1926    -2.9775 H       
  38 H38           -0.7732    10.0169     1.6694 H       
  39 H39            0.4082     8.7600     1.2203 H       
  40 H40            0.0775    11.5023    -0.0817 H       
  41 H41            1.4419    10.9628     0.9272 H       
  42 H42            1.9569     9.1886    -0.7404 H       
  43 H43           -0.2956    10.5109    -2.3204 H       
  44 H44            0.7971     9.2496    -2.9413 H       
  45 H45           -0.0038     7.6653    -1.2516 H       
  46 H46           -1.4055     8.3369    -2.1242 H       
  47 H47           -4.6151    10.6083     0.5680 H       
  48 H48           -2.3615     9.0382     4.6781 H       
  49 H49           -1.4929     8.3753     2.4771 H       
  50 H50           -8.0924    14.5945     1.3194 H       
  51 H51           -8.8775    13.1171     0.7035 H       
  52 H52           -9.2007    12.4675     4.8946 H       
  53 H53           -7.9674    13.6293     5.4524 H       
  54 H54          -10.0529    14.6855     4.4057 H       
  55 H55           -8.5083    15.1782     3.6729 H       
  56 H56           -6.2090    12.0455     0.8364 H       
  57 H57          -10.9818    14.3621     0.9716 H       
  58 H58          -11.5055    14.8441     2.6030 H       
  59 H59          -10.2036    15.7408     1.7851 H       
  60 H60           -5.3114     9.9109     5.5122 H       
  61 H61           -3.7004    10.5181     5.9640 H       
  62 H62           -4.8753    11.6055     5.1859 H       
@<TRIPOS>BOND
   1    1    2 1
   2    1    8 3
   3    2    3 ar
   4    2    7 ar
   5    3    4 ar
   6    3   34 1
   7    4    5 ar
   8    4   35 1
   9    5    6 ar
  10    5   12 1
  11    6    7 ar
  12    6   36 1
  13    7   37 1
  14    9   10 1
  15    9   14 1
  16    9   15 am
  17   10   11 1
  18   10   38 1
  19   10   39 1
  20   11   12 1
  21   11   40 1
  22   11   41 1
  23   12   13 1
  24   12   42 1
  25   13   14 1
  26   13   43 1
  27   13   44 1
  28   14   45 1
  29   14   46 1
  30   15   16 1
  31   15   22 2
  32   16   17 ar
  33   16   21 ar
  34   17   18 ar
  35   17   47 1
  36   18   19 ar
  37   18   29 1
  38   19   20 ar
  39   19   33 1
  40   20   21 ar
  41   20   48 1
  42   21   49 1
  43   23   24 1
  44   23   28 1
  45   23   50 1
  46   23   51 1
  47   24   25 2
  48   24   30 1
  49   25   26 1
  50   25   31 1
  51   26   27 1
  52   26   52 1
  53   26   53 1
  54   27   28 1
  55   27   54 1
  56   27   55 1
  57   28   32 1
  58   29   30 1
  59   29   31 2
  60   30   56 1
  61   32   57 1
  62   32   58 1
  63   32   59 1
  64   33   60 1
  65   33   61 1
  66   33   62 1

#	End of record

