#	Name: ASD03240015
#	Creating user name:	WinNT
#	Creation time:	15. 06. 2019 20:34

#	Modifying user name:	WinNT
#	Modification time:	15. 06. 2019 20:34

#	Program:	/corina/corina34_cracker 3.40 0067  02.08.2006

@<TRIPOS>MOLECULE
ASD03240015
  71   77    0    0    0
SMALL
NO_CHARGES


@<TRIPOS>ATOM
   1 C1            -0.0172     1.4139     0.0098 C.ar    
   2 C2             0.0021    -0.0041     0.0020 C.ar    
   3 N3             1.1281     2.1066     0.0026 N.ar    
   4 C4             2.2839     1.4696    -0.0119 C.ar    
   5 C5             2.3042     0.0074    -0.0199 C.ar    
   6 N6             1.1662    -0.6628    -0.0122 N.ar    
   7 C7             3.5949    -0.7186    -0.0371 C.ar    
   8 C8             3.5541     2.2318    -0.0204 C.ar    
   9 C9             3.6393     3.4427    -0.7070 C.ar    
  10 C10            4.8250     4.1484    -0.7109 C.ar    
  11 C11            5.9280     3.6568    -0.0359 C.ar    
  12 C12            5.8498     2.4560     0.6466 C.ar    
  13 C13            4.6677     1.7443     0.6630 C.ar    
  14 C14            3.7279    -1.9269     0.6470 C.ar    
  15 C15            4.9329    -2.5987     0.6268 C.ar    
  16 C16            6.0080    -2.0761    -0.0698 C.ar    
  17 C17            5.8824    -0.8779    -0.7499 C.ar    
  18 C18            4.6808    -0.1997    -0.7423 C.ar    
  19 C19            7.3214    -2.8148    -0.0873 C.3     
  20 N20            7.3470    -3.7412    -1.2271 N.3     
  21 C21            8.6900    -4.3033    -1.4184 C.3     
  22 C22            8.7146    -5.1462    -2.6954 C.3     
  23 C23            7.6821    -6.2709    -2.5787 C.3     
  24 C24            6.2997    -5.6605    -2.3317 C.3     
  25 C25            6.3452    -4.8026    -1.0652 C.3     
  26 N26            7.6600    -7.0461    -3.8216 N.am    
  27 C27            7.9353    -8.4065    -3.9388 C.ar    
  28 C28            7.7995    -8.7307    -5.2901 C.ar    
  29 N29            7.4459    -7.5573    -5.9521 N.am    
  30 C30            7.3645    -6.5663    -5.0444 C.2     
  31 C31            8.2856    -9.3887    -3.0249 C.ar    
  32 C32            8.4987   -10.6836    -3.4552 C.ar    
  33 C33            8.3640   -11.0050    -4.7951 C.ar    
  34 C34            8.0155   -10.0336    -5.7127 C.ar    
  35 O35            7.0759    -5.4105    -5.2927 O.2     
  36 C36           -1.2133    -0.7157     0.0098 C.ar    
  37 C37           -2.3950    -0.0488     0.0242 C.ar    
  38 C38           -2.4280     1.3573     0.0320 C.ar    
  39 C39           -1.2505     2.0868     0.0311 C.ar    
  40 C40           -3.7267     2.0606     0.0477 C.2     
  41 O41           -3.7598     3.2749     0.0544 O.2     
  42 O42           -4.8746     1.3554     0.0544 O.3     
  43 H43            2.7791     3.8272    -1.2348 H       
  44 H44            4.8923     5.0863    -1.2422 H       
  45 H45            6.8540     4.2125    -0.0421 H       
  46 H46            6.7143     2.0771     1.1714 H       
  47 H47            4.6078     0.8069     1.1961 H       
  48 H48            2.8896    -2.3355     1.1917 H       
  49 H49            5.0372    -3.5343     1.1561 H       
  50 H50            6.7254    -0.4746    -1.2913 H       
  51 H51            4.5838     0.7354    -1.2739 H       
  52 H52            8.1390    -2.1001    -0.1815 H       
  53 H53            7.4348    -3.3765     0.8399 H       
  54 H54            9.4140    -3.4930    -1.5041 H       
  55 H55            8.9463    -4.9302    -0.5644 H       
  56 H56            8.4719    -4.5168    -3.5516 H       
  57 H57            9.7074    -5.5760    -2.8288 H       
  58 H58            7.9464    -6.9230    -1.7462 H       
  59 H59            6.0190    -5.0392    -3.1822 H       
  60 H60            5.5672    -6.4577    -2.2052 H       
  61 H61            6.6125    -5.4273    -0.2129 H       
  62 H62            5.3661    -4.3550    -0.8944 H       
  63 H63            7.2825    -7.4699    -6.9042 H       
  64 H64            8.3918    -9.1416    -1.9789 H       
  65 H65            8.7718   -11.4486    -2.7435 H       
  66 H66            8.5323   -12.0198    -5.1241 H       
  67 H67            7.9110   -10.2882    -6.7571 H       
  68 H68           -1.2048    -1.7956     0.0040 H       
  69 H69           -3.3212    -0.6043     0.0294 H       
  70 H70           -1.2803     3.1663     0.0371 H       
  71 H71           -5.6996     1.8598     0.0646 H       
@<TRIPOS>BOND
   1    1    2 ar
   2    1    3 ar
   3    1   39 ar
   4    2   36 ar
   5    2    6 ar
   6    3    4 ar
   7    4    5 ar
   8    4    8 1
   9    5    6 ar
  10    5    7 1
  11    7   14 ar
  12    7   18 ar
  13    8    9 ar
  14    8   13 ar
  15    9   10 ar
  16    9   43 1
  17   10   11 ar
  18   10   44 1
  19   11   12 ar
  20   11   45 1
  21   12   13 ar
  22   12   46 1
  23   13   47 1
  24   14   15 ar
  25   14   48 1
  26   15   16 ar
  27   15   49 1
  28   16   17 ar
  29   16   19 1
  30   17   18 ar
  31   17   50 1
  32   18   51 1
  33   19   20 1
  34   19   52 1
  35   19   53 1
  36   20   21 1
  37   20   25 1
  38   21   22 1
  39   21   54 1
  40   21   55 1
  41   22   23 1
  42   22   56 1
  43   22   57 1
  44   23   24 1
  45   23   26 1
  46   23   58 1
  47   24   25 1
  48   24   59 1
  49   24   60 1
  50   25   61 1
  51   25   62 1
  52   26   27 1
  53   26   30 am
  54   27   28 ar
  55   27   31 ar
  56   28   29 1
  57   28   34 ar
  58   29   30 am
  59   29   63 1
  60   30   35 2
  61   31   32 ar
  62   31   64 1
  63   32   33 ar
  64   32   65 1
  65   33   34 ar
  66   33   66 1
  67   34   67 1
  68   36   37 ar
  69   36   68 1
  70   37   38 ar
  71   37   69 1
  72   38   39 ar
  73   38   40 1
  74   39   70 1
  75   40   41 2
  76   40   42 1
  77   42   71 1

#	End of record

