#	Name: ASD01120048
#	Creating user name:	WinNT
#	Creation time:	15. 06. 2019 18:58

#	Modifying user name:	WinNT
#	Modification time:	15. 06. 2019 18:58

#	Program:	/corina/corina34_cracker 3.40 0067  02.08.2006

@<TRIPOS>MOLECULE
ASD01120048
  51   54    0    0    0
SMALL
NO_CHARGES


@<TRIPOS>ATOM
   1 C1            -0.0891     1.3614     0.6786 C.ar    
   2 C2            -0.0582    -0.0341     0.5502 C.ar    
   3 C3            -1.1978    -0.7360     0.2251 C.ar    
   4 C4            -2.3988    -0.0457     0.0219 C.ar    
   5 C5            -2.4225     1.3649     0.1539 C.ar    
   6 C6            -1.2513     2.0542     0.4902 C.ar    
   7 N7            -3.5366    -0.6826    -0.2969 N.ar    
   8 C8            -4.6468    -0.0087    -0.4817 C.ar    
   9 N9            -4.7165     1.3082    -0.3696 N.ar    
  10 C10           -3.6510     2.0349    -0.0580 C.ar    
  11 N11           -3.7383     3.4075     0.0561 N.pl3   
  12 C12           -4.9845     4.0398    -0.0353 C.ar    
  13 C13           -6.1296     3.3769     0.3764 C.ar    
  14 C14           -7.3677     4.0088     0.2842 C.ar    
  15 C15           -7.4489     5.3064    -0.2223 C.ar    
  16 C16           -6.3020     5.9618    -0.6312 C.ar    
  17 C17           -5.0720     5.3361    -0.5342 C.ar    
  18 C18           -8.5970     3.3035     0.7230 C.2     
  19 O19            1.0492     2.0325     0.9999 O.3     
  20 O20            1.1085    -0.7014     0.7480 O.3     
  21 C21            0.9536     3.4535     1.1162 C.3     
  22 C22            2.3238     4.0287     1.4804 C.3     
  23 C23            1.0757    -2.1226     0.6027 C.3     
  24 C24            2.4712    -2.6940     0.8612 C.3     
  25 C25           -9.8237     3.8593     0.6596 C.2     
  26 S26          -10.9825     2.6839     1.2753 S.3     
  27 C27           -9.7198     1.5670     1.5569 C.2     
  28 N28           -8.5867     2.0699     1.2065 N.2     
  29 C29           -9.9064     0.1856     2.1297 C.3     
  30 F30           -3.9544     5.9809    -0.9346 F       
  31 F31           -8.6479     5.9221    -0.3136 F       
  32 H32           -1.1652    -1.8111     0.1274 H       
  33 H33           -1.2648     3.1293     0.5922 H       
  34 H34           -5.5440    -0.5528    -0.7371 H       
  35 H35           -2.9365     3.9342     0.1995 H       
  36 H36           -6.0625     2.3724     0.7675 H       
  37 H37           -6.3661     6.9662    -1.0230 H       
  38 H38            0.6235     3.8745     0.1665 H       
  39 H39            0.2345     3.7067     1.8953 H       
  40 H40            2.2508     5.1127     1.5691 H       
  41 H41            2.6538     3.6078     2.4301 H       
  42 H42            3.0428     3.7756     0.7013 H       
  43 H43            0.3716    -2.5449     1.3196 H       
  44 H44            0.7606    -2.3772    -0.4093 H       
  45 H45            2.4462    -3.7781     0.7504 H       
  46 H46            3.1754    -2.2717     0.1444 H       
  47 H47            2.7863    -2.4394     1.8732 H       
  48 H48          -10.0549     4.8496     0.2959 H       
  49 H49          -10.9640     0.0161     2.3322 H       
  50 H50           -9.5502    -0.5555     1.4142 H       
  51 H51           -9.3402     0.0972     3.0568 H       
@<TRIPOS>BOND
   1    1    2 ar
   2    1   19 1
   3    1    6 ar
   4    2    3 ar
   5    2   20 1
   6    3    4 ar
   7    3   32 1
   8    4    5 ar
   9    4    7 ar
  10    5    6 ar
  11    5   10 ar
  12    6   33 1
  13    7    8 ar
  14    8    9 ar
  15    8   34 1
  16    9   10 ar
  17   10   11 1
  18   11   12 1
  19   11   35 1
  20   12   13 ar
  21   12   17 ar
  22   13   14 ar
  23   13   36 1
  24   14   15 ar
  25   14   18 1
  26   15   16 ar
  27   15   31 1
  28   16   17 ar
  29   16   37 1
  30   17   30 1
  31   18   25 2
  32   18   28 1
  33   19   21 1
  34   20   23 1
  35   21   22 1
  36   21   38 1
  37   21   39 1
  38   22   40 1
  39   22   41 1
  40   22   42 1
  41   23   24 1
  42   23   43 1
  43   23   44 1
  44   24   45 1
  45   24   46 1
  46   24   47 1
  47   25   26 1
  48   25   48 1
  49   26   27 1
  50   27   28 2
  51   27   29 1
  52   29   49 1
  53   29   50 1
  54   29   51 1

#	End of record

