#	Name: ASD02408027
#	Creating user name:	WinNT
#	Creation time:	15. 06. 2019 20:21

#	Modifying user name:	WinNT
#	Modification time:	15. 06. 2019 20:21

#	Program:	/corina/corina34_cracker 3.40 0067  02.08.2006

@<TRIPOS>MOLECULE
ASD02408027
  29   30    0    0    0
SMALL
NO_CHARGES


@<TRIPOS>ATOM
   1 C1            -0.0167     1.3775     0.0096 C.ar    
   2 C2             0.0021    -0.0041     0.0020 C.ar    
   3 C3             1.2782     2.1484     0.0014 C.3     
   4 C4             1.6963     2.4130    -1.4221 C.2     
   5 N5             2.8365     3.0943    -1.6501 N.am    
   6 N6             0.9449     1.9702    -2.3927 N.2     
   7 C7             1.2671     2.1754    -3.6771 C.2     
   8 C8             2.4415     2.8838    -3.9865 C.2     
   9 C9             3.2415     3.3493    -2.9119 C.2     
  10 S10            0.2308     1.5635    -4.9641 S.3     
  11 O11            4.2697     3.9689    -3.1233 O.2     
  12 C12           -1.1880    -0.7122     0.0096 C.ar    
  13 C13           -2.3952    -0.0348     0.0247 C.ar    
  14 C14           -2.4115     1.3473     0.0323 C.ar    
  15 C15           -1.2230     2.0531     0.0190 C.ar    
  16 C16           -1.0651     0.7754    -3.9763 C.3     
  17 F17           -1.1709    -2.0631     0.0017 F       
  18 C18            2.8210     3.1241    -5.3462 C.1     
  19 N19            3.1221     3.3147    -6.4248 N.1     
  20 H20            0.9445    -0.5315    -0.0102 H       
  21 H21            1.1401     3.0962     0.5217 H       
  22 H22            2.0505     1.5668     0.5048 H       
  23 H23            3.3700     3.4040    -0.9015 H       
  24 H24           -3.3239    -0.5860     0.0303 H       
  25 H25           -3.3531     1.8760     0.0441 H       
  26 H26           -1.2367     3.1330     0.0253 H       
  27 H27           -1.5419     1.5216    -3.3407 H       
  28 H28           -1.8092     0.3337    -4.6391 H       
  29 H29           -0.6245    -0.0037    -3.3542 H       
@<TRIPOS>BOND
   1    1    2 ar
   2    1    3 1
   3    1   15 ar
   4    2   12 ar
   5    2   20 1
   6    3    4 1
   7    3   21 1
   8    3   22 1
   9    4    5 1
  10    4    6 2
  11    5    9 am
  12    5   23 1
  13    6    7 1
  14    7    8 2
  15    7   10 1
  16    8    9 1
  17    8   18 1
  18    9   11 2
  19   10   16 1
  20   12   13 ar
  21   12   17 1
  22   13   14 ar
  23   13   24 1
  24   14   15 ar
  25   14   25 1
  26   15   26 1
  27   16   27 1
  28   16   28 1
  29   16   29 1
  30   18   19 3

#	End of record

