#	Name: ASD00069138
#	Creating user name:	WinNT
#	Creation time:	15. 06. 2019 18:29

#	Modifying user name:	WinNT
#	Modification time:	15. 06. 2019 18:29

#	Program:	/corina/corina34_cracker 3.40 0067  02.08.2006

@<TRIPOS>MOLECULE
ASD00069138
  53   56    0    0    0
SMALL
NO_CHARGES


@<TRIPOS>ATOM
   1 C1            -0.0972     1.1986    -0.5382 C.2     
   2 N2             0.0007    -0.0058    -0.0194 N.2     
   3 C3             1.2447    -0.4623    -0.2082 C.2     
   4 C4             1.9521     0.4996    -0.8735 C.2     
   5 N5             1.1114     1.5386    -1.0795 N.pl3   
   6 C6            -1.3084     2.0385    -0.5412 C.2     
   7 O7            -1.2824     3.1415    -1.0532 O.2     
   8 N8            -2.4449     1.5843     0.0233 N.am    
   9 C9             1.7648    -1.7820     0.2283 C.ar    
  10 C10            0.9321    -2.6739     0.9010 C.ar    
  11 C11            1.4215    -3.9006     1.3050 C.ar    
  12 C12            2.7369    -4.2440     1.0423 C.ar    
  13 C13            3.5667    -3.3618     0.3750 C.ar    
  14 C14            3.0858    -2.1355    -0.0381 C.ar    
  15 Cl15           0.3862    -5.0133     2.1438 Cl      
  16 C16           -3.5601     2.4250     0.1263 C.ar    
  17 C17           -4.8460     1.8965     0.0210 C.ar    
  18 C18           -5.9474     2.7356     0.1245 C.ar    
  19 C19           -5.7659     4.0922     0.3317 C.ar    
  20 C20           -4.4900     4.6148     0.4354 C.ar    
  21 C21           -3.3885     3.7851     0.3391 C.ar    
  22 F22           -7.1955     2.2284     0.0227 F       
  23 N23           -5.0262     0.5233    -0.1891 N.3     
  24 C24           -5.7971    -0.0798     0.9055 C.3     
  25 C25           -5.8496    -1.5978     0.7183 C.3     
  26 C26           -6.5033    -1.9187    -0.6286 C.3     
  27 C27           -5.7091    -1.2390    -1.7474 C.3     
  28 C28           -5.6607     0.2685    -1.4887 C.3     
  29 C29           -6.5037    -3.4328    -0.8489 C.3     
  30 N30           -7.2364    -3.7479    -2.0826 N.3     
  31 H31            2.9869     0.4410    -1.1769 H       
  32 H32            1.3261     2.3713    -1.5283 H       
  33 H33           -2.4903     0.6751     0.3582 H       
  34 H34           -0.0939    -2.4063     1.1064 H       
  35 H35            3.1162    -5.2039     1.3601 H       
  36 H36            4.5919    -3.6346     0.1727 H       
  37 H37            3.7339    -1.4495    -0.5631 H       
  38 H38           -6.6232     4.7441     0.4121 H       
  39 H39           -4.3536     5.6740     0.5963 H       
  40 H40           -2.3937     4.1966     0.4252 H       
  41 H41           -5.3192     0.1524     1.8573 H       
  42 H42           -6.8103     0.3219     0.9005 H       
  43 H43           -4.8374    -2.0020     0.7370 H       
  44 H44           -6.4350    -2.0437     1.5224 H       
  45 H45           -7.5286    -1.5488    -0.6332 H       
  46 H46           -4.6948    -1.6375    -1.7675 H       
  47 H47           -6.1942    -1.4285    -2.7050 H       
  48 H48           -6.6746     0.6687    -1.4825 H       
  49 H49           -5.0837     0.7538    -2.2759 H       
  50 H50           -5.4767    -3.7876    -0.9356 H       
  51 H51           -6.9873    -3.9228    -0.0039 H       
  52 H52           -6.8462    -3.2538    -2.8711 H       
  53 H53           -7.2509    -4.7427    -2.2505 H       
@<TRIPOS>BOND
   1    1    2 2
   2    1    5 1
   3    1    6 1
   4    2    3 1
   5    3    4 2
   6    3    9 1
   7    4    5 1
   8    4   31 1
   9    5   32 1
  10    6    7 2
  11    6    8 am
  12    8   16 1
  13    8   33 1
  14    9   10 ar
  15    9   14 ar
  16   10   11 ar
  17   10   34 1
  18   11   12 ar
  19   11   15 1
  20   12   13 ar
  21   12   35 1
  22   13   14 ar
  23   13   36 1
  24   14   37 1
  25   16   17 ar
  26   16   21 ar
  27   17   18 ar
  28   17   23 1
  29   18   19 ar
  30   18   22 1
  31   19   20 ar
  32   19   38 1
  33   20   21 ar
  34   20   39 1
  35   21   40 1
  36   23   24 1
  37   23   28 1
  38   24   25 1
  39   24   41 1
  40   24   42 1
  41   25   26 1
  42   25   43 1
  43   25   44 1
  44   26   27 1
  45   26   29 1
  46   26   45 1
  47   27   28 1
  48   27   46 1
  49   27   47 1
  50   28   48 1
  51   28   49 1
  52   29   30 1
  53   29   50 1
  54   29   51 1
  55   30   52 1
  56   30   53 1

#	End of record

