#	Name: ASD01903151
#	Creating user name:	WinNT
#	Creation time:	15. 06. 2019 19:54

#	Modifying user name:	WinNT
#	Modification time:	15. 06. 2019 19:54

#	Program:	/corina/corina34_cracker 3.40 0067  02.08.2006

@<TRIPOS>MOLECULE
ASD01903151
  47   50    0    0    0
SMALL
NO_CHARGES


@<TRIPOS>ATOM
   1 C1             1.9394    -2.2553     1.4605 C.ar    
   2 C2             0.9318    -1.7328     0.6652 C.ar    
   3 C3             1.1787    -0.5919    -0.0820 C.ar    
   4 N4             2.3532    -0.0016    -0.0454 N.ar    
   5 C5             3.3448    -0.4696     0.7031 C.ar    
   6 C6             3.1673    -1.6122     1.4796 C.ar    
   7 C7             4.6508     0.2292     0.7124 C.2     
   8 N8             4.8287     1.3353    -0.0369 N.am    
   9 O9             5.5620    -0.1949     1.3956 O.2     
  10 C10            6.0274     2.0504     0.0458 C.ar    
  11 C11            7.2278     1.3775     0.2337 C.ar    
  12 C12            8.4100     2.0868     0.3150 C.ar    
  13 C13            8.3995     3.4656     0.2094 C.ar    
  14 C14            7.2060     4.1387     0.0227 C.ar    
  15 C15            6.0210     3.4349    -0.0656 C.ar    
  16 S16            9.9100     4.3668     0.3136 S.o2    
  17 O17            9.5647     5.6826     0.7241 O.2     
  18 O18           10.8201     3.5430     1.0294 O.2     
  19 N19           10.5091     4.4989    -1.2245 N.am    
  20 C20           10.1559     5.6322    -2.0863 C.3     
  21 C21            9.8341     5.1344    -3.4731 C.ar    
  22 C22           10.0975     3.8434    -3.8721 C.ar    
  23 C23           10.7092     2.8142    -2.9585 C.3     
  24 C24           11.4227     3.4867    -1.7803 C.3     
  25 C25            9.2530     6.0277    -4.3631 C.ar    
  26 C26            8.9421     5.6336    -5.6481 C.ar    
  27 C27            9.2130     4.3396    -6.0527 C.ar    
  28 C28            9.7879     3.4508    -5.1688 C.ar    
  29 H29            1.7704    -3.1407     2.0553 H       
  30 H30           -0.0362    -2.2102     0.6278 H       
  31 H31            0.3959    -0.1822    -0.7031 H       
  32 H32            3.9750    -1.9920     2.0877 H       
  33 H33            4.1251     1.6352    -0.6335 H       
  34 H34            7.2367     0.3007     0.3166 H       
  35 H35            9.3437     1.5642     0.4615 H       
  36 H36            7.2012     5.2156    -0.0590 H       
  37 H37            5.0892     3.9612    -0.2114 H       
  38 H38            9.2866     6.1444    -1.6740 H       
  39 H39           10.9953     6.3258    -2.1356 H       
  40 H40            9.9243     2.1602    -2.5787 H       
  41 H41           11.4298     2.2196    -3.5199 H       
  42 H42           12.3403     3.9619    -2.1273 H       
  43 H43           11.6569     2.7436    -1.0181 H       
  44 H44            9.0424     7.0386    -4.0469 H       
  45 H45            8.4886     6.3329    -6.3350 H       
  46 H46            8.9750     4.0256    -7.0583 H       
  47 H47            9.9995     2.4407    -5.4871 H       
@<TRIPOS>BOND
   1    1    2 ar
   2    1    6 ar
   3    1   29 1
   4    2    3 ar
   5    2   30 1
   6    3    4 ar
   7    3   31 1
   8    4    5 ar
   9    5    6 ar
  10    5    7 1
  11    6   32 1
  12    7    8 am
  13    7    9 2
  14    8   10 1
  15    8   33 1
  16   10   11 ar
  17   10   15 ar
  18   11   12 ar
  19   11   34 1
  20   12   13 ar
  21   12   35 1
  22   13   14 ar
  23   13   16 1
  24   14   15 ar
  25   14   36 1
  26   15   37 1
  27   16   17 2
  28   16   18 2
  29   16   19 am
  30   19   20 1
  31   19   24 1
  32   20   21 1
  33   20   38 1
  34   20   39 1
  35   21   22 ar
  36   21   25 ar
  37   22   23 1
  38   22   28 ar
  39   23   24 1
  40   23   40 1
  41   23   41 1
  42   24   42 1
  43   24   43 1
  44   25   26 ar
  45   25   44 1
  46   26   27 ar
  47   26   45 1
  48   27   28 ar
  49   27   46 1
  50   28   47 1

#	End of record

