#	Name: ASD01410414
#	Creating user name:	WinNT
#	Creation time:	15. 06. 2019 19:17

#	Modifying user name:	WinNT
#	Modification time:	15. 06. 2019 19:17

#	Program:	/corina/corina34_cracker 3.40 0067  02.08.2006

@<TRIPOS>MOLECULE
ASD01410414
  36   38    0    0    0
SMALL
NO_CHARGES


@<TRIPOS>ATOM
   1 S1            -0.0144     1.7570    -0.1019 S.3     
   2 C2            -0.0018     0.0031     0.1517 C.2     
   3 N3             1.2727    -0.3524     0.3494 N.am    
   4 C4             2.2185     0.5719     0.3253 C.2     
   5 C5             1.7424     1.9381     0.0741 C.2     
   6 S6            -1.3612    -1.0376     0.1458 S.2     
   7 O7             3.3943     0.3099     0.4986 O.2     
   8 N8             1.6032    -1.6941     0.5807 N.am    
   9 S9             1.9612    -2.6901    -0.6929 S.o2    
  10 O10            2.3958    -3.9205    -0.1303 O.2     
  11 O11            0.8703    -2.5918    -1.5981 O.2     
  12 C12            3.3565    -2.0001    -1.5185 C.ar    
  13 C13            4.6345    -2.3658    -1.1393 C.ar    
  14 C14            5.7292    -1.8244    -1.7870 C.ar    
  15 C15            5.5458    -0.9177    -2.8142 C.ar    
  16 C16            4.2678    -0.5527    -3.1940 C.ar    
  17 C17            3.1730    -1.0974    -2.5492 C.ar    
  18 C18            2.4764     3.0764    -0.0055 C.2     
  19 C19           -0.1496     5.7442     0.2265 C.ar    
  20 C20            0.5339     6.8386    -0.2856 C.ar    
  21 C21            0.4766     4.5178     0.3197 C.ar    
  22 C22            1.8036     4.3790    -0.1029 C.ar    
  23 C23            2.4873     5.4862    -0.6183 C.ar    
  24 C24            1.8501     6.7072    -0.7068 C.ar    
  25 F25           -1.4286     5.8811     0.6397 F       
  26 F26           -0.0846     8.0364    -0.3747 F       
  27 F27            2.5088     7.7768    -1.2041 F       
  28 H28            1.6223    -2.0396     1.4869 H       
  29 H29            4.7778    -3.0742    -0.3368 H       
  30 H30            6.7277    -2.1096    -1.4903 H       
  31 H31            6.4011    -0.4942    -3.3197 H       
  32 H32            4.1245     0.1560    -3.9963 H       
  33 H33            2.1745    -0.8150    -2.8484 H       
  34 H34            3.5551     3.0251     0.0028 H       
  35 H35           -0.0561     3.6672     0.7187 H       
  36 H36            3.5113     5.3851    -0.9463 H       
@<TRIPOS>BOND
   1    1    2 1
   2    1    5 1
   3    2    3 am
   4    2    6 2
   5    3    4 am
   6    3    8 1
   7    4    5 1
   8    4    7 2
   9    5   18 2
  10    8    9 am
  11    8   28 1
  12    9   10 2
  13    9   11 2
  14    9   12 1
  15   12   13 ar
  16   12   17 ar
  17   13   14 ar
  18   13   29 1
  19   14   15 ar
  20   14   30 1
  21   15   16 ar
  22   15   31 1
  23   16   17 ar
  24   16   32 1
  25   17   33 1
  26   18   22 1
  27   18   34 1
  28   19   20 ar
  29   19   21 ar
  30   19   25 1
  31   20   24 ar
  32   20   26 1
  33   21   22 ar
  34   21   35 1
  35   22   23 ar
  36   23   24 ar
  37   23   36 1
  38   24   27 1

#	End of record

