#	Name: ASD04590463
#	Creating user name:	WinNT
#	Creation time:	15. 06. 2019 20:50

#	Modifying user name:	WinNT
#	Modification time:	15. 06. 2019 20:50

#	Program:	/corina/corina34_cracker 3.40 0067  02.08.2006

@<TRIPOS>MOLECULE
ASD04590463
  61   65    0    0    0
SMALL
NO_CHARGES


@<TRIPOS>ATOM
   1 C1             0.1960     1.4310     1.4290 C.ar    
   2 C2             0.2277     0.0466     1.5146 C.ar    
   3 C3             2.5323     0.0516     0.8439 C.ar    
   4 C4             2.4942     1.4547     0.7584 C.ar    
   5 C5             1.3213     2.1344     1.0533 C.ar    
   6 N6             3.7861    -0.3367     0.5047 N.2     
   7 C7             4.5118     0.7176     0.2203 C.2     
   8 N8             3.7576     1.8512     0.3624 N.pl3   
   9 C9             5.9306     0.6868    -0.1912 C.2     
  10 C10            6.7269    -0.4717    -0.3439 C.2     
  11 C11            7.9635    -0.0750    -0.7316 C.2     
  12 N12            7.9567     1.2808    -0.8227 N.pl3   
  13 N13            6.6751     1.7344    -0.4861 N.2     
  14 N14            6.3109    -1.7965    -0.1313 N.am    
  15 C15            7.1773    -2.8125    -0.3143 C.2     
  16 O16            8.3164    -2.5830    -0.6625 O.2     
  17 C17            1.3820    -0.6454     1.2265 C.ar    
  18 C18           -1.0115    -0.7054     1.9268 C.3     
  19 N19           -1.8004    -1.0406     0.7338 N.3     
  20 C20           -2.8873    -1.9731     1.0659 C.3     
  21 C21           -0.9444    -1.5944    -0.3254 C.3     
  22 C22           -1.7946    -1.8732    -1.5676 C.3     
  23 O23           -2.8641    -2.7563    -1.2188 O.3     
  24 C24           -3.7181    -2.2482    -0.1903 C.3     
  25 C25            6.7310    -4.2337    -0.0862 C.3     
  26 C26            7.9116    -5.1597    -0.2269 C.ar    
  27 C27            8.9661    -5.0753     0.6629 C.ar    
  28 C28           10.0491    -5.9246     0.5338 C.ar    
  29 C29           10.0773    -6.8587    -0.4848 C.ar    
  30 C30            9.0224    -6.9438    -1.3740 C.ar    
  31 C31            7.9374    -6.0973    -1.2423 C.ar    
  32 C32            6.1450    -4.3647     1.3211 C.3     
  33 C33            5.6652    -4.6056    -1.1190 C.3     
  34 H34           -0.7176     1.9613     1.6538 H       
  35 H35            1.2894     3.2120     0.9884 H       
  36 H36            4.0543     2.7625     0.2128 H       
  37 H37            8.8050    -0.7216    -0.9323 H       
  38 H38            8.7082     1.8377    -1.0796 H       
  39 H39            5.4000    -1.9801     0.1472 H       
  40 H40            1.3993    -1.7230     1.2960 H       
  41 H41           -0.7255    -1.6220     2.4427 H       
  42 H42           -1.6084    -0.0839     2.5943 H       
  43 H43           -2.4650    -2.9078     1.4348 H       
  44 H44           -3.5233    -1.5323     1.8335 H       
  45 H45           -0.1620    -0.8770    -0.5733 H       
  46 H46           -0.4910    -2.5230     0.0213 H       
  47 H47           -2.2046    -0.9367    -1.9458 H       
  48 H48           -1.1757    -2.3368    -2.3358 H       
  49 H49           -4.4903    -2.9829     0.0377 H       
  50 H50           -4.1840    -1.3226    -0.5284 H       
  51 H51            8.9441    -4.3455     1.4587 H       
  52 H52           10.8733    -5.8582     1.2286 H       
  53 H53           10.9237    -7.5218    -0.5861 H       
  54 H54            9.0446    -7.6733    -2.1701 H       
  55 H55            7.1132    -6.1637    -1.9371 H       
  56 H56            5.2911    -3.6949     1.4228 H       
  57 H57            5.8222    -5.3926     1.4860 H       
  58 H58            6.9043    -4.0998     2.0569 H       
  59 H59            6.0827    -4.5123    -2.1216 H       
  60 H60            5.3424    -5.6335    -0.9541 H       
  61 H61            4.8113    -3.9358    -1.0173 H       
@<TRIPOS>BOND
   1    1    2 ar
   2    1    5 ar
   3    1   34 1
   4    2   17 ar
   5    2   18 1
   6    3    4 ar
   7    3    6 1
   8    3   17 ar
   9    4    5 ar
  10    4    8 1
  11    5   35 1
  12    6    7 2
  13    7    8 1
  14    7    9 1
  15    8   36 1
  16    9   10 1
  17    9   13 2
  18   10   11 2
  19   10   14 1
  20   11   12 1
  21   11   37 1
  22   12   13 1
  23   12   38 1
  24   14   15 am
  25   14   39 1
  26   15   16 2
  27   15   25 1
  28   17   40 1
  29   18   19 1
  30   18   41 1
  31   18   42 1
  32   19   20 1
  33   19   21 1
  34   20   24 1
  35   20   43 1
  36   20   44 1
  37   21   22 1
  38   21   45 1
  39   21   46 1
  40   22   23 1
  41   22   47 1
  42   22   48 1
  43   23   24 1
  44   24   49 1
  45   24   50 1
  46   25   26 1
  47   25   32 1
  48   25   33 1
  49   26   27 ar
  50   26   31 ar
  51   27   28 ar
  52   27   51 1
  53   28   29 ar
  54   28   52 1
  55   29   30 ar
  56   29   53 1
  57   30   31 ar
  58   30   54 1
  59   31   55 1
  60   32   56 1
  61   32   57 1
  62   32   58 1
  63   33   59 1
  64   33   60 1
  65   33   61 1

#	End of record

