#	Name: ASD05740258
#	Creating user name:	WinNT
#	Creation time:	15. 06. 2019 21:03

#	Modifying user name:	WinNT
#	Modification time:	15. 06. 2019 21:03

#	Program:	/corina/corina34_cracker 3.40 0067  02.08.2006

@<TRIPOS>MOLECULE
ASD05740258
  61   64    0    0    0
SMALL
NO_CHARGES


@<TRIPOS>ATOM
   1 C1            -0.1160     1.2922    -0.4988 C.ar    
   2 C2            -0.0578    -0.0749    -0.2402 C.ar    
   3 N3             0.9857     1.9838    -0.7517 N.ar    
   4 C4             2.1732     1.4138    -0.7695 C.ar    
   5 C5             2.3108     0.0501    -0.5207 C.ar    
   6 C6             1.1671    -0.7110    -0.2493 C.ar    
   7 C7             3.6488    -0.5863    -0.5429 C.ar    
   8 C8             4.8009     0.1885    -0.7103 C.ar    
   9 N9             3.7731    -1.9039    -0.3983 N.ar    
  10 C10            4.9678    -2.4742    -0.4180 C.ar    
  11 N11            6.0753    -1.7649    -0.5800 N.ar    
  12 C12            6.0275    -0.4496    -0.7246 C.ar    
  13 N13            5.0624    -3.8474    -0.2648 N.pl3   
  14 N14           -1.3443     1.9377    -0.4972 N.pl3   
  15 C15            6.3052    -4.4821    -0.3885 C.ar    
  16 C16            6.5457    -5.3352    -1.4574 C.ar    
  17 C17            7.2984    -4.2535     0.5546 C.ar    
  18 C18            8.5233    -4.8789     0.4327 C.ar    
  19 C19            8.7620    -5.7366    -0.6331 C.ar    
  20 C20            7.7704    -5.9611    -1.5792 C.ar    
  21 N21           10.0037    -6.3702    -0.7570 N.3     
  22 C22           11.4366    -7.8390    -2.0924 C.3     
  23 N23           11.7579    -8.6091    -0.8827 N.3     
  24 C24           11.7212    -7.7509     0.3097 C.3     
  25 C25           10.3250    -7.1403     0.4527 C.3     
  26 C26           10.0404    -7.2284    -1.9494 C.3     
  27 C27           -2.5690     1.1813    -0.2247 C.3     
  28 C28           -3.7736     2.1228    -0.2828 C.3     
  29 N29           -5.0016     1.3643    -0.0096 N.3     
  30 C30           13.0612    -9.2742    -1.0127 C.3     
  31 C31            3.8628    -4.6363     0.0267 C.3     
  32 H32           -0.9606    -0.6309    -0.0347 H       
  33 H33            3.0490     2.0098    -0.9795 H       
  34 H34            1.2416    -1.7702    -0.0521 H       
  35 H35            4.7341     1.2602    -0.8261 H       
  36 H36            6.9366     0.1184    -0.8564 H       
  37 H37           -1.3922     2.8898    -0.6765 H       
  38 H38            5.7747    -5.5095    -2.1933 H       
  39 H39            7.1129    -3.5862     1.3833 H       
  40 H40            9.2959    -4.7009     1.1661 H       
  41 H41            7.9559    -6.6284    -2.4079 H       
  42 H42           12.1700    -7.0432    -2.2223 H       
  43 H43           11.4579    -8.4987    -2.9598 H       
  44 H44           11.9499    -8.3464     1.1935 H       
  45 H45           12.4578    -6.9541     0.2071 H       
  46 H46           10.3038    -6.4806     1.3201 H       
  47 H47            9.5916    -7.9362     0.5826 H       
  48 H48            9.3038    -8.0253    -1.8467 H       
  49 H49            9.8117    -6.6329    -2.8332 H       
  50 H50           -2.6850     0.3963    -0.9719 H       
  51 H51           -2.5060     0.7327     0.7667 H       
  52 H52           -3.6576     2.9078     0.4644 H       
  53 H53           -3.8366     2.5713    -1.2742 H       
  54 H54           -4.9414     0.8858     0.8767 H       
  55 H55           -5.8121     1.9643    -0.0422 H       
  56 H56           13.8378    -8.5248    -1.1665 H       
  57 H57           13.2743    -9.8369    -0.1038 H       
  58 H58           13.0388    -9.9542    -1.8642 H       
  59 H59            3.4020    -4.9556    -0.9081 H       
  60 H60            4.1380    -5.5124     0.6139 H       
  61 H61            3.1561    -4.0280     0.5910 H       
@<TRIPOS>BOND
   1    1    2 ar
   2    1    3 ar
   3    1   14 1
   4    2    6 ar
   5    2   32 1
   6    3    4 ar
   7    4    5 ar
   8    4   33 1
   9    5    6 ar
  10    5    7 1
  11    6   34 1
  12    7    8 ar
  13    7    9 ar
  14    8   12 ar
  15    8   35 1
  16    9   10 ar
  17   10   11 ar
  18   10   13 1
  19   11   12 ar
  20   12   36 1
  21   13   15 1
  22   13   31 1
  23   14   27 1
  24   14   37 1
  25   15   16 ar
  26   15   17 ar
  27   16   20 ar
  28   16   38 1
  29   17   18 ar
  30   17   39 1
  31   18   19 ar
  32   18   40 1
  33   19   20 ar
  34   19   21 1
  35   20   41 1
  36   21   26 1
  37   21   25 1
  38   22   23 1
  39   22   26 1
  40   22   42 1
  41   22   43 1
  42   23   24 1
  43   23   30 1
  44   24   25 1
  45   24   44 1
  46   24   45 1
  47   25   46 1
  48   25   47 1
  49   26   48 1
  50   26   49 1
  51   27   28 1
  52   27   50 1
  53   27   51 1
  54   28   29 1
  55   28   52 1
  56   28   53 1
  57   29   54 1
  58   29   55 1
  59   30   56 1
  60   30   57 1
  61   30   58 1
  62   31   59 1
  63   31   60 1
  64   31   61 1

#	End of record

