#	Name: ASD05430069
#	Creating user name:	WinNT
#	Creation time:	15. 06. 2019 20:59

#	Modifying user name:	WinNT
#	Modification time:	15. 06. 2019 20:59

#	Program:	/corina/corina34_cracker 3.40 0067  02.08.2006

@<TRIPOS>MOLECULE
ASD05430069
  66   71    0    0    0
SMALL
NO_CHARGES


@<TRIPOS>ATOM
   1 C1             0.0595     1.1757     0.4045 C.ar    
   2 C2             0.0203    -0.0138    -0.3220 C.ar    
   3 C3             1.1665    -0.4883    -0.9465 C.ar    
   4 C4             2.3483     0.2140    -0.8508 C.ar    
   5 C5             2.3953     1.4081    -0.1238 C.ar    
   6 C6             1.2411     1.8858     0.5046 C.ar    
   7 C7             4.8678    -0.0031     0.2155 C.3     
   8 C8             4.8285     1.4999     0.0679 C.2     
   9 C9             3.6566     2.1594    -0.0200 C.2     
  10 C10            6.2210    -0.4591     0.7545 C.3     
  11 C11            6.8404     0.5758     1.6943 C.3     
  12 N12            7.0799     1.8148     0.9533 N.pl3   
  13 C13            6.1100     2.2207     0.0235 C.2     
  14 N14           -1.1793    -0.7331    -0.4219 N.pl3   
  15 C15           -1.7516    -1.2070    -1.5737 C.2     
  16 C16           -2.8880    -1.8347    -1.2151 C.2     
  17 N17           -3.0107    -1.7492     0.1177 N.2     
  18 C18           -1.9903    -1.0968     0.6049 C.2     
  19 C19           -3.8545    -2.5153    -2.1498 C.3     
  20 C20           -0.9530     2.8646     1.7374 C.3     
  21 O21           -1.0658     1.6399     1.0098 O.3     
  22 C22            8.2652     2.6400     1.1725 C.3     
  23 C23            8.7597     3.1658    -0.1800 C.3     
  24 N24            7.6324     3.7252    -0.9296 N.pl3   
  25 N25            6.3574     3.1536    -0.8382 N.2     
  26 C26            7.9140     3.8005     2.0676 C.ar    
  27 C27            8.7988     4.2089     3.0482 C.ar    
  28 C28            6.7098     4.4594     1.9036 C.ar    
  29 C29            6.3871     5.5243     2.7232 C.ar    
  30 C30            7.2701     5.9309     3.7091 C.ar    
  31 C31            8.4780     5.2732     3.8692 C.ar    
  32 F32            6.9557     6.9718     4.5109 F       
  33 O33            6.0690    -1.7041     1.4479 O.3     
  34 C34            6.8223    -2.7310     0.7838 C.3     
  35 C35            7.9395    -1.9810     0.0158 C.3     
  36 C36            7.1823    -0.7005    -0.4298 C.3     
  37 H37            1.1316    -1.4101    -1.5081 H       
  38 H38            3.2382    -0.1577    -1.3369 H       
  39 H39            1.2729     2.8073     1.0670 H       
  40 H40            4.0832    -0.3165     0.9042 H       
  41 H41            4.6954    -0.4638    -0.7572 H       
  42 H42            3.6429     3.2393    -0.0142 H       
  43 H43            6.1576     0.7720     2.5210 H       
  44 H44            7.7850     0.1956     2.0832 H       
  45 H45           -1.3657    -1.0975    -2.5765 H       
  46 H46           -1.8232    -0.8763     1.6489 H       
  47 H47           -3.5682    -3.5600    -2.2709 H       
  48 H48           -4.8610    -2.4601    -1.7350 H       
  49 H49           -3.8333    -2.0180    -3.1195 H       
  50 H50           -0.6338     3.6595     1.0634 H       
  51 H51           -1.9204     3.1211     2.1692 H       
  52 H52           -0.2189     2.7474     2.5344 H       
  53 H53            9.0467     2.0401     1.6390 H       
  54 H54            9.5078     3.9415    -0.0166 H       
  55 H55            9.2031     2.3477    -0.7476 H       
  56 H56            7.7708     4.5005    -1.4959 H       
  57 H57            9.7409     3.6957     3.1729 H       
  58 H58            6.0212     4.1421     1.1345 H       
  59 H59            5.4466     6.0394     2.5945 H       
  60 H60            9.1674     5.5893     4.6381 H       
  61 H61            7.2576    -3.4131     1.5141 H       
  62 H62            6.1856    -3.2770     0.0876 H       
  63 H63            8.7725    -1.7356     0.6746 H       
  64 H64            8.2786    -2.5566    -0.8455 H       
  65 H65            6.6265    -0.8791    -1.3503 H       
  66 H66            7.8709     0.1362    -0.5472 H       
@<TRIPOS>BOND
   1    1    2 ar
   2    1    6 ar
   3    1   21 1
   4    2    3 ar
   5    2   14 1
   6    3    4 ar
   7    3   37 1
   8    4    5 ar
   9    4   38 1
  10    5    6 ar
  11    5    9 1
  12    6   39 1
  13    7    8 1
  14    7   10 1
  15    7   40 1
  16    7   41 1
  17    8    9 2
  18    8   13 1
  19    9   42 1
  20   10   11 1
  21   10   33 1
  22   10   36 1
  23   11   12 1
  24   11   43 1
  25   11   44 1
  26   12   13 1
  27   12   22 1
  28   13   25 2
  29   14   15 1
  30   14   18 1
  31   15   16 2
  32   15   45 1
  33   16   17 1
  34   16   19 1
  35   17   18 2
  36   18   46 1
  37   19   47 1
  38   19   48 1
  39   19   49 1
  40   20   21 1
  41   20   50 1
  42   20   51 1
  43   20   52 1
  44   22   23 1
  45   22   26 1
  46   22   53 1
  47   23   24 1
  48   23   54 1
  49   23   55 1
  50   24   25 1
  51   24   56 1
  52   26   27 ar
  53   26   28 ar
  54   27   31 ar
  55   27   57 1
  56   28   29 ar
  57   28   58 1
  58   29   30 ar
  59   29   59 1
  60   30   31 ar
  61   30   32 1
  62   31   60 1
  63   33   34 1
  64   34   35 1
  65   34   61 1
  66   34   62 1
  67   35   36 1
  68   35   63 1
  69   35   64 1
  70   36   65 1
  71   36   66 1

#	End of record

