#	Name: ASD01140265
#	Creating user name:	WinNT
#	Creation time:	15. 06. 2019 19:00

#	Modifying user name:	WinNT
#	Modification time:	15. 06. 2019 19:00

#	Program:	/corina/corina34_cracker 3.40 0067  02.08.2006

@<TRIPOS>MOLECULE
ASD01140265
  81   88    0    0    0
SMALL
NO_CHARGES


@<TRIPOS>ATOM
   1 C1            -0.0169     1.3931     0.0097 C.ar    
   2 C2             0.0021    -0.0041     0.0020 C.ar    
   3 C3             1.2150    -0.6813    -0.0011 C.ar    
   4 C4             2.4238     0.0272     0.0038 C.ar    
   5 C5             2.3885     1.4241    -0.0124 C.ar    
   6 C6             1.1680     2.0938     0.0022 C.ar    
   7 C7             3.6699    -0.7453     0.0574 C.2     
   8 N8             4.7611    -0.5273    -0.5864 N.2     
   9 C9             4.8893     0.5845    -1.5356 C.3     
  10 C10            4.6746     1.8658    -0.7723 C.2     
  11 N11            3.5560     2.1895    -0.0767 N.pl3   
  12 C12           -1.2280    -0.7373    -0.0022 C.1     
  13 C13            3.7737     3.3975     0.5110 C.2     
  14 C14            3.6709    -1.9190     0.9639 C.ar    
  15 C15            5.5445     2.9041    -0.6402 C.2     
  16 N16            4.9538     3.8275     0.1649 N.2     
  17 C17            6.8778     3.0082    -1.2544 C.2     
  18 O18            7.6367     4.1007    -1.0366 O.3     
  19 O19            7.2946     2.1091    -1.9581 O.2     
  20 O20           11.6975     6.7187    -1.6440 O.3     
  21 C21           12.9284     6.9090    -2.1593 C.2     
  22 C22           13.6706     8.1429    -1.8555 C.2     
  23 O23           13.4254     6.0614    -2.8749 O.2     
  24 N24           13.2413     9.1704    -1.0744 N.2     
  25 C25           14.9163     8.4650    -2.2991 C.2     
  26 N26           15.2127     9.6925    -1.8073 N.pl3   
  27 C27           14.1616    10.0920    -1.0401 C.2     
  28 C28           15.8279     7.6236    -3.1553 C.3     
  29 N29           17.0577     7.3796    -2.3935 N.2     
  30 C30           17.8169     8.3434    -2.0045 C.2     
  31 C31           17.6216     9.7838    -2.2072 C.ar    
  32 C32           16.3806    10.4116    -2.0702 C.ar    
  33 C33           18.7402    10.5553    -2.5468 C.ar    
  34 C34           18.6221    11.9292    -2.7162 C.ar    
  35 C35           17.3815    12.5485    -2.5436 C.ar    
  36 C36           16.2760    11.7920    -2.2230 C.ar    
  37 C37           19.7704    12.7097    -3.0666 C.1     
  38 C38           19.0386     7.9503    -1.2611 C.ar    
  39 C39            8.9407     4.1353    -1.6743 C.3     
  40 C40           11.0242     5.4785    -1.9859 C.3     
  41 C41            9.6502     5.4421    -1.3140 C.3     
  42 C42           20.7119    13.3496    -3.3539 C.1     
  43 C43           -2.2364    -1.3384    -0.0056 C.1     
  44 C44            4.8148    -2.7060     1.0733 C.ar    
  45 C45            4.8009    -3.7990     1.9247 C.ar    
  46 C46            3.6425    -4.0674     2.6378 C.ar    
  47 C47            2.5417    -3.2422     2.4801 C.ar    
  48 N48            2.5838    -2.2074     1.6682 N.ar    
  49 C49           19.3000     6.6027    -1.0256 C.ar    
  50 C50           20.4455     6.2509    -0.3301 C.ar    
  51 C51           21.2906     7.2598     0.1062 C.ar    
  52 C52           20.9684     8.5792    -0.1634 C.ar    
  53 N53           19.8762     8.8853    -0.8306 N.ar    
  54 H54           -0.9586     1.9218     0.0170 H       
  55 H55            1.2264    -1.7613    -0.0070 H       
  56 H56            1.1507     3.1737     0.0075 H       
  57 H57            5.8858     0.5801    -1.9773 H       
  58 H58            4.1369     0.4904    -2.3186 H       
  59 H59            3.0812     3.9152     1.1582 H       
  60 H60           14.1006    11.0209    -0.4926 H       
  61 H61           15.3439     6.6753    -3.3889 H       
  62 H62           16.0639     8.1555    -4.0770 H       
  63 H63           19.7008    10.0792    -2.6775 H       
  64 H64           17.2895    13.6182    -2.6609 H       
  65 H65           15.3190    12.2741    -2.0890 H       
  66 H66            9.5368     3.2908    -1.3284 H       
  67 H67            8.8181     4.0746    -2.7557 H       
  68 H68           10.9016     5.4179    -3.0673 H       
  69 H69           11.6204     4.6341    -1.6400 H       
  70 H70            9.0540     6.2865    -1.6600 H       
  71 H71            9.7728     5.5027    -0.2326 H       
  72 H72           21.5538    13.9219    -3.6109 H       
  73 H73           -3.1383    -1.8760    -0.0087 H       
  74 H74            5.7000    -2.4678     0.5023 H       
  75 H75            5.6726    -4.4279     2.0302 H       
  76 H76            3.5991    -4.9120     3.3095 H       
  77 H77            1.6378    -3.4483     3.0340 H       
  78 H78           18.6193     5.8428    -1.3799 H       
  79 H79           20.6747     5.2143    -0.1320 H       
  80 H80           22.1913     7.0189     0.6513 H       
  81 H81           21.6244     9.3676     0.1750 H       
@<TRIPOS>BOND
   1    1    2 ar
   2    1    6 ar
   3    1   54 1
   4    2    3 ar
   5    2   12 1
   6    3    4 ar
   7    3   55 1
   8    4    5 ar
   9    4    7 1
  10    5    6 ar
  11    5   11 1
  12    6   56 1
  13    7    8 2
  14    7   14 1
  15    8    9 1
  16    9   10 1
  17    9   57 1
  18    9   58 1
  19   10   11 1
  20   10   15 2
  21   11   13 1
  22   12   43 3
  23   13   16 2
  24   13   59 1
  25   14   44 ar
  26   14   48 ar
  27   15   16 1
  28   15   17 1
  29   17   18 1
  30   17   19 2
  31   18   39 1
  32   20   21 1
  33   20   40 1
  34   21   22 1
  35   21   23 2
  36   22   24 1
  37   22   25 2
  38   24   27 2
  39   25   26 1
  40   25   28 1
  41   26   27 1
  42   26   32 1
  43   27   60 1
  44   28   29 1
  45   28   61 1
  46   28   62 1
  47   29   30 2
  48   30   31 1
  49   30   38 1
  50   31   32 ar
  51   31   33 ar
  52   32   36 ar
  53   33   34 ar
  54   33   63 1
  55   34   35 ar
  56   34   37 1
  57   35   36 ar
  58   35   64 1
  59   36   65 1
  60   37   42 3
  61   38   49 ar
  62   38   53 ar
  63   39   41 1
  64   39   66 1
  65   39   67 1
  66   40   41 1
  67   40   68 1
  68   40   69 1
  69   41   70 1
  70   41   71 1
  71   42   72 1
  72   43   73 1
  73   44   45 ar
  74   44   74 1
  75   45   46 ar
  76   45   75 1
  77   46   47 ar
  78   46   76 1
  79   47   48 ar
  80   47   77 1
  81   49   50 ar
  82   49   78 1
  83   50   51 ar
  84   50   79 1
  85   51   52 ar
  86   51   80 1
  87   52   53 ar
  88   52   81 1

#	End of record

