#	Name: ASD03730001
#	Creating user name:	WinNT
#	Creation time:	15. 06. 2019 20:43

#	Modifying user name:	WinNT
#	Modification time:	15. 06. 2019 20:43

#	Program:	/corina/corina34_cracker 3.40 0067  02.08.2006

@<TRIPOS>MOLECULE
ASD03730001
  65   70    0    0    0
SMALL
NO_CHARGES


@<TRIPOS>ATOM
   1 C1            -0.5261     1.3353    -0.3129 C.3     
   2 C2            -0.3338    -0.1823    -0.2417 C.3     
   3 C3             0.3904    -0.5391     1.0599 C.3     
   4 C4             1.7602     0.1463     1.0746 C.3     
   5 C5             1.9329     0.9359    -0.2258 C.3     
   6 C6             0.8474     2.0134    -0.3088 C.3     
   7 C7             2.8605    -0.8983     1.1940 C.3     
   8 C8             3.2626    -1.4712    -0.1192 C.2     
   9 C9             2.7965    -1.1227    -1.2923 C.2     
  10 C10            1.7631    -0.0369    -1.3998 C.3     
  11 C11            3.3304    -1.8549    -2.4900 C.3     
  12 C12            3.2333    -1.1006    -3.8023 C.3     
  13 C13            1.9407    -0.2688    -3.8606 C.3     
  14 C14            1.9424     0.7344    -2.7076 C.3     
  15 C15            2.4416    -3.0925    -2.7868 C.3     
  16 C16            2.6182    -3.2954    -4.2772 C.2     
  17 C17            3.0655    -2.2050    -4.8441 C.2     
  18 O18           -1.6080    -0.8283    -0.2731 O.3     
  19 C19            3.3179     1.5851    -0.2635 C.3     
  20 H20            1.8156     0.8282     1.9232 H       
  21 C21            4.4095    -0.2459    -4.1453 C.3     
  22 C22            3.3703    -2.0588    -6.3127 C.3     
  23 O23            2.6507    -0.9424    -6.8398 O.3     
  24 C24            2.9487    -3.3314    -7.0501 C.3     
  25 N25            5.5116    -0.9296    -4.7958 N.3     
  26 C26            6.3172    -1.6807    -3.8553 C.3     
  27 C27            5.4865    -2.7719    -3.1991 C.3     
  28 C28            6.3379     0.0135    -5.5612 C.3     
  29 O29            0.8655     1.6592    -2.8724 O.3     
  30 O30            0.4559    -0.6109    -1.3536 O.3     
  31 O31            4.6380    -2.3293    -2.1968 O.3     
  32 H32           -1.0573     1.5930    -1.2292 H       
  33 H33           -1.1011     1.6710     0.5501 H       
  34 H34           -0.1983    -0.1957     1.9106 H       
  35 H35            0.5227    -1.6195     1.1191 H       
  36 H36            0.9733     2.5884    -1.2262 H       
  37 H37            0.9245     2.6764     0.5529 H       
  38 H38            3.7328    -0.4378     1.6578 H       
  39 H39            2.5096    -1.7059     1.8365 H       
  40 H40            4.0108    -2.2498    -0.1033 H       
  41 H41            1.8938     0.2662    -4.8092 H       
  42 H42            1.0779    -0.9286    -3.7694 H       
  43 H43            2.8900     1.2727    -2.6904 H       
  44 H44            2.7970    -3.9628    -2.2352 H       
  45 H45            1.3988    -2.8835    -2.5478 H       
  46 H46            2.4045    -4.2156    -4.8007 H       
  47 H47           -2.1229    -0.6440    -1.0707 H       
  48 H48            4.0835     0.8111    -0.2094 H       
  49 H49            3.4318     2.1445    -1.1920 H       
  50 H50            3.4250     2.2620     0.5841 H       
  51 H51            4.0696     0.5555    -4.8013 H       
  52 H52            4.7826     0.2064    -3.2265 H       
  53 H53            4.4399    -1.8982    -6.4476 H       
  54 H54            1.6903    -1.0552    -6.8339 H       
  55 H55            1.8791    -3.4921    -6.9152 H       
  56 H56            3.1691    -3.2257    -8.1124 H       
  57 H57            3.4976    -4.1830    -6.6482 H       
  58 H58            7.1570    -2.1343    -4.3817 H       
  59 H59            6.6979    -1.0068    -3.0879 H       
  60 H60            4.8870    -3.2585    -3.9685 H       
  61 H61            6.1639    -3.5131    -2.7752 H       
  62 H62            6.7106     0.7926    -4.8962 H       
  63 H63            7.1794    -0.5183    -6.0053 H       
  64 H64            5.7369     0.4659    -6.3500 H       
  65 H65            0.9077     2.1700    -3.6924 H       
@<TRIPOS>BOND
   1    1    2 1
   2    1    6 1
   3    1   32 1
   4    1   33 1
   5    2    3 1
   6    2   18 1
   7    2   30 1
   8    3    4 1
   9    3   34 1
  10    3   35 1
  11    4    5 1
  12    4    7 1
  13    4   20 1
  14    5    6 1
  15    5   10 1
  16    5   19 1
  17    6   36 1
  18    6   37 1
  19    7    8 1
  20    7   38 1
  21    7   39 1
  22    8    9 2
  23    8   40 1
  24    9   11 1
  25    9   10 1
  26   10   30 1
  27   10   14 1
  28   11   12 1
  29   11   15 1
  30   11   31 1
  31   12   13 1
  32   12   21 1
  33   12   17 1
  34   13   14 1
  35   13   41 1
  36   13   42 1
  37   14   29 1
  38   14   43 1
  39   15   16 1
  40   15   44 1
  41   15   45 1
  42   16   17 2
  43   16   46 1
  44   17   22 1
  45   18   47 1
  46   19   48 1
  47   19   49 1
  48   19   50 1
  49   21   25 1
  50   21   51 1
  51   21   52 1
  52   22   23 1
  53   22   24 1
  54   22   53 1
  55   23   54 1
  56   24   55 1
  57   24   56 1
  58   24   57 1
  59   25   26 1
  60   25   28 1
  61   26   27 1
  62   26   58 1
  63   26   59 1
  64   27   31 1
  65   27   60 1
  66   27   61 1
  67   28   62 1
  68   28   63 1
  69   28   64 1
  70   29   65 1

#	End of record

