#	Name: ASD03200041
#	Creating user name:	WinNT
#	Creation time:	15. 06. 2019 20:34

#	Modifying user name:	WinNT
#	Modification time:	15. 06. 2019 20:34

#	Program:	/corina/corina34_cracker 3.40 0067  02.08.2006

@<TRIPOS>MOLECULE
ASD03200041
  53   56    0    0    0
SMALL
NO_CHARGES


@<TRIPOS>ATOM
   1 C1            -0.1344     1.5722    -0.0902 C.3     
   2 N2            -0.0886     0.1049    -0.0540 N.3     
   3 C3             0.5680    -0.3759     1.1684 C.3     
   4 C4             2.0147     0.1221     1.2015 C.3     
   5 C5             2.0234     1.6528     1.1633 C.3     
   6 C6             1.2913     2.1284    -0.0946 C.3     
   7 C7            -1.3663    -0.4381    -0.1813 C.ar    
   8 C8            -2.3397    -0.2106     0.7884 C.ar    
   9 C9            -3.5928    -0.7657     0.6261 C.ar    
  10 N10           -3.8768    -1.5046    -0.4298 N.ar    
  11 C11           -2.9859    -1.7464    -1.3732 C.ar    
  12 C12           -1.7068    -1.2218    -1.2903 C.ar    
  13 N13           -0.7645    -1.4815    -2.2946 N.am    
  14 C14           -0.7733    -2.6664    -2.9368 C.2     
  15 C15            0.1262    -2.8916    -4.0713 C.2     
  16 O16           -1.5287    -3.5498    -2.5742 O.2     
  17 C17            0.1648    -4.0795    -4.7684 C.2     
  18 S18            1.3729    -3.9247    -6.0415 S.3     
  19 C19            1.7192    -2.2783    -5.5250 C.2     
  20 N20            0.9708    -1.9623    -4.5180 N.2     
  21 C21            2.7155    -1.3850    -6.1536 C.ar    
  22 N22            2.6649    -0.3414     2.4345 N.3     
  23 N23           -0.6068    -5.1951    -4.5135 N.pl3   
  24 C24            2.3628    -0.0822    -6.5096 C.ar    
  25 C25            3.2971     0.7462    -7.0958 C.ar    
  26 C26            4.5815     0.2883    -7.3311 C.ar    
  27 C27            4.9374    -1.0017    -6.9807 C.ar    
  28 C28            4.0140    -1.8387    -6.3884 C.ar    
  29 C29            0.9643     0.4181    -6.2546 C.3     
  30 H30           -0.6538     1.8972    -0.9916 H       
  31 H31           -0.6653     1.9408     0.7876 H       
  32 H32            0.0339     0.0018     2.0402 H       
  33 H33            0.5588    -1.4658     1.1810 H       
  34 H34            2.5533    -0.2665     0.3371 H       
  35 H35            1.5188     2.0421     2.0476 H       
  36 H36            3.0528     2.0109     1.1430 H       
  37 H37            1.8185     1.7713    -0.9794 H       
  38 H38            1.2569     3.2178    -0.1057 H       
  39 H39           -2.1167     0.3921     1.6564 H       
  40 H40           -4.3522    -0.5931     1.3744 H       
  41 H41           -3.2589    -2.3565    -2.2215 H       
  42 H42           -0.1060    -0.8085    -2.5276 H       
  43 H43            3.6220    -0.0250     2.4795 H       
  44 H44            2.1477    -0.0462     3.2490 H       
  45 H45           -1.2483    -5.1853    -3.7859 H       
  46 H46           -0.5077    -5.9890    -5.0619 H       
  47 H47            3.0254     1.7543    -7.3721 H       
  48 H48            5.3091     0.9408    -7.7907 H       
  49 H49            5.9415    -1.3531    -7.1670 H       
  50 H50            4.2932    -2.8455    -6.1150 H       
  51 H51            0.9353     0.9454    -5.3011 H       
  52 H52            0.6698     1.0973    -7.0545 H       
  53 H53            0.2763    -0.4268    -6.2236 H       
@<TRIPOS>BOND
   1    1    2 1
   2    1    6 1
   3    1   30 1
   4    1   31 1
   5    2    3 1
   6    2    7 1
   7    3    4 1
   8    3   32 1
   9    3   33 1
  10    4    5 1
  11    4   22 1
  12    4   34 1
  13    5    6 1
  14    5   35 1
  15    5   36 1
  16    6   37 1
  17    6   38 1
  18    7    8 ar
  19    7   12 ar
  20    8    9 ar
  21    8   39 1
  22    9   10 ar
  23    9   40 1
  24   10   11 ar
  25   11   12 ar
  26   11   41 1
  27   12   13 1
  28   13   14 am
  29   13   42 1
  30   14   15 1
  31   14   16 2
  32   15   17 2
  33   15   20 1
  34   17   18 1
  35   17   23 1
  36   18   19 1
  37   19   20 2
  38   19   21 1
  39   21   24 ar
  40   21   28 ar
  41   22   43 1
  42   22   44 1
  43   23   45 1
  44   23   46 1
  45   24   25 ar
  46   24   29 1
  47   25   26 ar
  48   25   47 1
  49   26   27 ar
  50   26   48 1
  51   27   28 ar
  52   27   49 1
  53   28   50 1
  54   29   51 1
  55   29   52 1
  56   29   53 1

#	End of record

