#	Name: ASD02408107
#	Creating user name:	WinNT
#	Creation time:	15. 06. 2019 20:21

#	Modifying user name:	WinNT
#	Modification time:	15. 06. 2019 20:21

#	Program:	/corina/corina34_cracker 3.40 0067  02.08.2006

@<TRIPOS>MOLECULE
ASD02408107
  34   36    0    0    0
SMALL
NO_CHARGES


@<TRIPOS>ATOM
   1 C1            -0.0167     1.3775     0.0096 C.ar    
   2 C2             0.0021    -0.0041     0.0020 C.ar    
   3 C3             1.2779     2.1490     0.0014 C.3     
   4 C4             1.5697     2.6256    -1.3981 C.2     
   5 N5             2.6896     3.3400    -1.6225 N.am    
   6 N6             0.7317     2.3279    -2.3537 N.2     
   7 C7             0.9397     2.7241    -3.6159 C.2     
   8 C8             2.0858     3.4773    -3.9196 C.2     
   9 C9             2.9824     3.7824    -2.8635 C.2     
  10 N10            0.0425     2.3970    -4.6028 N.pl3   
  11 C11           -1.1500     1.6106    -4.2773 C.3     
  12 O12            3.9921     4.4329    -3.0712 O.2     
  13 C13           -1.1855    -0.7122     0.0091 C.ar    
  14 C14           -2.3927    -0.0390     0.0239 C.ar    
  15 C15           -2.4139     1.3430     0.0320 C.ar    
  16 C16           -1.2255     2.0530     0.0190 C.ar    
  17 F17           -1.2450     3.4039     0.0274 F       
  18 C18           -2.3654     1.7578    -5.1949 C.3     
  19 C19           -1.5302     0.4764    -5.2312 C.3     
  20 C20            2.3441     3.9198    -5.2568 C.1     
  21 N21            2.5490     4.2707    -6.3176 N.1     
  22 H22            0.9447    -0.5311    -0.0098 H       
  23 H23            1.1933     3.0077     0.6674 H       
  24 H24            2.0876     1.5036     0.3417 H       
  25 H25            3.2897     3.5382    -0.8866 H       
  26 H26            0.1983     2.6866    -5.5153 H       
  27 H27           -1.3373     1.4588    -3.2143 H       
  28 H28           -1.1699    -1.7920     0.0028 H       
  29 H29           -3.3197    -0.5931     0.0287 H       
  30 H30           -3.3572     1.8687     0.0431 H       
  31 H31           -3.3524     1.7025    -4.7356 H       
  32 H32           -2.2778     2.4398    -6.0407 H       
  33 H33           -0.8932     0.3153    -6.1009 H       
  34 H34           -1.9678    -0.4220    -4.7958 H       
@<TRIPOS>BOND
   1    1    2 ar
   2    1    3 1
   3    1   16 ar
   4    2   13 ar
   5    2   22 1
   6    3    4 1
   7    3   23 1
   8    3   24 1
   9    4    5 1
  10    4    6 2
  11    5    9 am
  12    5   25 1
  13    6    7 1
  14    7    8 2
  15    7   10 1
  16    8    9 1
  17    8   20 1
  18    9   12 2
  19   10   11 1
  20   10   26 1
  21   11   18 1
  22   11   19 1
  23   11   27 1
  24   13   14 ar
  25   13   28 1
  26   14   15 ar
  27   14   29 1
  28   15   16 ar
  29   15   30 1
  30   16   17 1
  31   18   19 1
  32   18   31 1
  33   18   32 1
  34   19   33 1
  35   19   34 1
  36   20   21 3

#	End of record

