#	Name: ASD04882598
#	Creating user name:	WinNT
#	Creation time:	15. 06. 2019 20:55

#	Modifying user name:	WinNT
#	Modification time:	15. 06. 2019 20:55

#	Program:	/corina/corina34_cracker 3.40 0067  02.08.2006

@<TRIPOS>MOLECULE
ASD04882598
  72   77    0    0    0
SMALL
NO_CHARGES


@<TRIPOS>ATOM
   1 C1             0.2293     1.2701     0.2263 C.ar    
   2 C2             0.0821    -0.0672    -0.1524 C.ar    
   3 C3            -1.1826    -0.5832    -0.4110 C.ar    
   4 C4            -2.2946     0.2210    -0.2955 C.ar    
   5 C5            -2.1546     1.5592     0.0829 C.ar    
   6 C6            -0.8848     2.0789     0.3495 C.ar    
   7 N7             1.2039    -0.8836    -0.2714 N.3     
   8 C8             1.1205    -2.0298     0.6445 C.3     
   9 C9             1.3829    -1.3337    -1.6589 C.3     
  10 C10            2.6667    -2.1605    -1.7625 C.3     
  11 N11            2.5833    -3.3067    -0.8466 N.3     
  12 C12            2.4043    -2.8567     0.5408 C.3     
  13 C13           -3.3460     2.4204     0.2066 C.2     
  14 O14           -3.2163     3.6121     0.4102 O.2     
  15 N15           -4.5783     1.8862     0.0940 N.am    
  16 N16            1.5044     1.7888     0.4865 N.am    
  17 C17            3.7085    -4.1257    -0.9660 C.ar    
  18 C18            3.5651    -5.4549    -1.3422 C.ar    
  19 C19            4.6800    -6.2619    -1.4597 C.ar    
  20 C20            5.9376    -5.7479    -1.2029 C.ar    
  21 C21            6.0839    -4.4246    -0.8280 C.ar    
  22 C22            4.9741    -3.6109    -0.7142 C.ar    
  23 C23            1.6379     2.9168     1.2121 C.2     
  24 C24            2.9545     3.5468     1.3523 C.2     
  25 C25            3.2285     4.6853     2.0549 C.2     
  26 C26            4.6055     4.9217     1.9190 C.2     
  27 C27            5.1052     3.9298     1.1493 C.2     
  28 O28            4.1084     3.1001     0.8146 O.3     
  29 O29            0.6655     3.4124     1.7509 O.2     
  30 C30            2.1947    -6.0163    -1.6214 C.3     
  31 C31           -4.8772     0.4919    -0.2690 C.3     
  32 C32            6.5477     3.7784     0.7403 C.3     
  33 C33           -6.4158     0.3420    -0.2972 C.3     
  34 C34           -6.8940     1.7923    -0.4614 C.3     
  35 C35           -5.8500     2.6029     0.3209 C.3     
  36 C36           -7.1971     2.2507    -1.8830 C.3     
  37 O37           -8.3202     2.9367    -1.2862 O.3     
  38 C38           -8.3565     2.0672    -0.1325 C.3     
  39 H39           -1.2932    -1.6169    -0.7035 H       
  40 H40           -3.2757    -0.1827    -0.4977 H       
  41 H41           -0.7735     3.1125     0.6420 H       
  42 H42            1.0008    -1.6707     1.6666 H       
  43 H43            0.2658    -2.6499     0.3741 H       
  44 H44            0.5312    -1.9458    -1.9554 H       
  45 H45            1.4545    -0.4670    -2.3159 H       
  46 H46            2.7864    -2.5197    -2.7846 H       
  47 H47            3.5214    -1.5404    -1.4922 H       
  48 H48            3.2560    -2.2445     0.8373 H       
  49 H49            2.3327    -3.7234     1.1979 H       
  50 H50            2.2912     1.3362     0.1445 H       
  51 H51            4.5692    -7.2956    -1.7522 H       
  52 H52            6.8075    -6.3812    -1.2948 H       
  53 H53            7.0676    -4.0264    -0.6278 H       
  54 H54            5.0891    -2.5776    -0.4218 H       
  55 H55            2.5226     5.2874     2.6076 H       
  56 H56            5.1610     5.7422     2.3486 H       
  57 H57            1.9550    -5.8819    -2.6762 H       
  58 H58            2.1808    -7.0787    -1.3781 H       
  59 H59            1.4572    -5.4943    -1.0118 H       
  60 H60           -4.4652     0.2689    -1.2532 H       
  61 H61           -4.4527    -0.1834     0.4739 H       
  62 H62            7.0750     3.1796     1.4829 H       
  63 H63            6.6004     3.2836    -0.2294 H       
  64 H64            7.0111     4.7626     0.6717 H       
  65 H65           -6.7292    -0.2666    -1.1454 H       
  66 H66           -6.7799    -0.0813     0.6390 H       
  67 H67           -6.0996     2.6203     1.3818 H       
  68 H68           -5.7848     3.6177    -0.0716 H       
  69 H69           -6.4439     2.9172    -2.3032 H       
  70 H70           -7.4798     1.4426    -2.5577 H       
  71 H71           -9.0072     1.2008    -0.2516 H       
  72 H72           -8.5069     2.5906     0.8116 H       
@<TRIPOS>BOND
   1    1    2 ar
   2    1   16 1
   3    1    6 ar
   4    2    3 ar
   5    2    7 1
   6    3    4 ar
   7    3   39 1
   8    4    5 ar
   9    4   40 1
  10    5    6 ar
  11    5   13 1
  12    6   41 1
  13    7    8 1
  14    7    9 1
  15    8   12 1
  16    8   42 1
  17    8   43 1
  18    9   10 1
  19    9   44 1
  20    9   45 1
  21   10   11 1
  22   10   46 1
  23   10   47 1
  24   11   12 1
  25   11   17 1
  26   12   48 1
  27   12   49 1
  28   13   14 2
  29   13   15 am
  30   15   31 1
  31   15   35 1
  32   16   23 am
  33   16   50 1
  34   17   18 ar
  35   17   22 ar
  36   18   19 ar
  37   18   30 1
  38   19   20 ar
  39   19   51 1
  40   20   21 ar
  41   20   52 1
  42   21   22 ar
  43   21   53 1
  44   22   54 1
  45   23   24 1
  46   23   29 2
  47   24   25 2
  48   24   28 1
  49   25   26 1
  50   25   55 1
  51   26   27 2
  52   26   56 1
  53   27   28 1
  54   27   32 1
  55   30   57 1
  56   30   58 1
  57   30   59 1
  58   31   33 1
  59   31   60 1
  60   31   61 1
  61   32   62 1
  62   32   63 1
  63   32   64 1
  64   33   34 1
  65   33   65 1
  66   33   66 1
  67   34   35 1
  68   34   36 1
  69   34   38 1
  70   35   67 1
  71   35   68 1
  72   36   37 1
  73   36   69 1
  74   36   70 1
  75   37   38 1
  76   38   71 1
  77   38   72 1

#	End of record

