#	Name: ASD01890541
#	Creating user name:	WinNT
#	Creation time:	15. 06. 2019 19:51

#	Modifying user name:	WinNT
#	Modification time:	15. 06. 2019 19:51

#	Program:	/corina/corina34_cracker 3.40 0067  02.08.2006

@<TRIPOS>MOLECULE
ASD01890541
  37   39    0    0    0
SMALL
NO_CHARGES


@<TRIPOS>ATOM
   1 C1            -0.8634    -0.2181    -1.0816 C.2     
   2 C2            -0.0695     0.1286     0.1515 C.3     
   3 C3             1.2898    -0.5715     0.0964 C.3     
   4 C4             2.1534    -0.1015     1.2687 C.3     
   5 O5            -0.3534    -0.8631    -1.9669 O.2     
   6 O6            -2.1388     0.1850    -1.1940 O.3     
   7 C7             2.4657     1.3639     1.1068 C.2     
   8 N8             3.0289     1.8947     0.0610 N.2     
   9 C9             3.1622     3.2336     0.2443 C.ar    
  10 C10            2.6316     3.5282     1.5118 C.ar    
  11 N11            2.1943     2.3249     2.0304 N.pl3   
  12 C12            3.6865     4.2652    -0.5386 C.ar    
  13 C13            3.6783     5.5572    -0.0616 C.ar    
  14 C14            3.1528     5.8425     1.1915 C.ar    
  15 C15            2.6313     4.8359     1.9760 C.ar    
  16 Cl16           4.3304     6.8387    -1.0344 Cl      
  17 C17            1.0908    -2.0627     0.1853 C.ar    
  18 C18            1.5228    -2.8799    -0.8427 C.ar    
  19 C19            1.3409    -4.2476    -0.7614 C.ar    
  20 C20            0.7265    -4.7987     0.3486 C.ar    
  21 C21            0.2944    -3.9806     1.3769 C.ar    
  22 C22            0.4815    -2.6135     1.2972 C.ar    
  23 Br23           0.4768    -6.6698     0.4601 Br      
  24 H24            0.0791     1.2075     0.1966 H       
  25 H25           -0.6122    -0.2008     1.0375 H       
  26 H26            1.7869    -0.3266    -0.8422 H       
  27 H27            1.6137    -0.2570     2.2029 H       
  28 H28            3.0826    -0.6712     1.2868 H       
  29 H29           -2.6074    -0.0614    -2.0032 H       
  30 H30            1.7735     2.1901     2.8939 H       
  31 H31            4.0972     4.0502    -1.5140 H       
  32 H32            3.1526     6.8598     1.5541 H       
  33 H33            2.2238     5.0646     2.9497 H       
  34 H34            2.0022    -2.4495    -1.7095 H       
  35 H35            1.6782    -4.8860    -1.5647 H       
  36 H36           -0.1857    -4.4104     2.2436 H       
  37 H37            0.1478    -1.9750     2.1018 H       
@<TRIPOS>BOND
   1    1    2 1
   2    1    5 2
   3    1    6 1
   4    2    3 1
   5    2   24 1
   6    2   25 1
   7    3    4 1
   8    3   17 1
   9    3   26 1
  10    4    7 1
  11    4   27 1
  12    4   28 1
  13    6   29 1
  14    7    8 2
  15    7   11 1
  16    8    9 1
  17    9   10 ar
  18    9   12 ar
  19   10   11 1
  20   10   15 ar
  21   11   30 1
  22   12   13 ar
  23   12   31 1
  24   13   14 ar
  25   13   16 1
  26   14   15 ar
  27   14   32 1
  28   15   33 1
  29   17   18 ar
  30   17   22 ar
  31   18   19 ar
  32   18   34 1
  33   19   20 ar
  34   19   35 1
  35   20   21 ar
  36   20   23 1
  37   21   22 ar
  38   21   36 1
  39   22   37 1

#	End of record

