#	Name: ASD01884338
#	Creating user name:	WinNT
#	Creation time:	15. 06. 2019 19:48

#	Modifying user name:	WinNT
#	Modification time:	15. 06. 2019 19:48

#	Program:	/corina/corina34_cracker 3.40 0067  02.08.2006

@<TRIPOS>MOLECULE
ASD01884338
  62   64    0    0    0
SMALL
NO_CHARGES


@<TRIPOS>ATOM
   1 C1            -0.0205     1.3978    -0.0996 C.2     
   2 C2             0.0018    -0.0044    -0.0030 C.2     
   3 C3            -1.2214    -0.6946     0.1042 C.2     
   4 C4            -2.3862    -0.0077     0.1126 C.2     
   5 N5            -2.4090     1.3466     0.0193 N.am    
   6 C6            -1.2725     2.0610    -0.0793 C.2     
   7 O7            -1.3208     3.2765    -0.1614 O.2     
   8 C8            -3.6966     2.0452     0.0328 C.3     
   9 C9            -4.0755     2.3885     1.4749 C.3     
  10 C10            1.1981     2.1416    -0.2103 C.1     
  11 N11            2.1648     2.7317    -0.2981 N.1     
  12 O12            1.1673    -0.6733    -0.0131 O.3     
  13 N13            2.2180    -0.0647    -0.1076 N.pl3   
  14 C14            2.9311     0.4013     1.0914 C.3     
  15 C15            4.3884    -0.0641     1.0027 C.3     
  16 N16            4.9639     0.3797    -0.2739 N.3     
  17 C17            4.2696    -0.2344    -1.4136 C.3     
  18 C18            2.8105     0.2187    -1.4237 C.3     
  19 C19           -5.4203     3.1181     1.4890 C.3     
  20 C20           -5.8591     3.3508     2.9362 C.3     
  21 C21           -5.2776     4.4645     0.7765 C.3     
  22 C22            6.4059     0.1041    -0.3254 C.3     
  23 C23            6.9131     0.3416    -1.7245 C.ar    
  24 C24            7.3738     1.5925    -2.0895 C.ar    
  25 C25            7.8391     1.8104    -3.3730 C.ar    
  26 C26            7.8435     0.7773    -4.2912 C.ar    
  27 C27            7.3831    -0.4741    -3.9259 C.ar    
  28 C28            6.9229    -0.6933    -2.6412 C.ar    
  29 C29            1.1728    -1.8786     0.0716 C.2     
  30 C30            8.3409     3.1745    -3.7712 C.3     
  31 F31            9.7127     3.2611    -3.5104 F       
  32 F32            8.1123     3.3752    -5.1367 F       
  33 F33            7.6637     4.1534    -3.0361 F       
  34 H34           -1.2290    -1.7719     0.1792 H       
  35 H35           -3.3179    -0.5477     0.1948 H       
  36 H36           -3.6184     2.9626    -0.5505 H       
  37 H37           -4.4630     1.4030    -0.4011 H       
  38 H38           -4.1537     1.4711     2.0583 H       
  39 H39           -3.3091     3.0308     1.9088 H       
  40 H40            2.8965     1.4897     1.1382 H       
  41 H41            2.4653    -0.0213     1.9817 H       
  42 H42            4.9580     0.3648     1.8271 H       
  43 H43            4.4270    -1.1519     1.0605 H       
  44 H44            4.7531     0.0710    -2.3415 H       
  45 H45            4.3099    -1.3198    -1.3221 H       
  46 H46            2.2646    -0.3219    -2.1968 H       
  47 H47            2.7612     1.2901    -1.6178 H       
  48 H48           -6.1674     2.5128     0.9757 H       
  49 H49           -5.1119     3.9561     3.4495 H       
  50 H50           -6.8171     3.8706     2.9462 H       
  51 H51           -5.9607     2.3916     3.4437 H       
  52 H52           -4.9650     4.2987    -0.2544 H       
  53 H53           -6.2356     4.9843     0.7866 H       
  54 H54           -4.5304     5.0698     1.2898 H       
  55 H55            6.9271     0.7651     0.3671 H       
  56 H56            6.5879    -0.9331    -0.0441 H       
  57 H57            7.3700     2.3999    -1.3722 H       
  58 H58            8.2063     0.9477    -5.2941 H       
  59 H59            7.3863    -1.2813    -4.6434 H       
  60 H60            6.5632    -1.6709    -2.3559 H       
  61 H61            2.1014    -2.4222    -0.0216 H       
  62 H62            0.2492    -2.4123     0.2404 H       
@<TRIPOS>BOND
   1    1    2 2
   2    1   10 1
   3    1    6 1
   4    2    3 1
   5    2   12 1
   6    3    4 2
   7    3   34 1
   8    4    5 1
   9    4   35 1
  10    5    6 am
  11    5    8 1
  12    6    7 2
  13    8    9 1
  14    8   36 1
  15    8   37 1
  16    9   19 1
  17    9   38 1
  18    9   39 1
  19   10   11 3
  20   12   13 1
  21   12   29 2
  22   13   14 1
  23   13   18 1
  24   14   15 1
  25   14   40 1
  26   14   41 1
  27   15   16 1
  28   15   42 1
  29   15   43 1
  30   16   17 1
  31   16   22 1
  32   17   18 1
  33   17   44 1
  34   17   45 1
  35   18   46 1
  36   18   47 1
  37   19   20 1
  38   19   21 1
  39   19   48 1
  40   20   49 1
  41   20   50 1
  42   20   51 1
  43   21   52 1
  44   21   53 1
  45   21   54 1
  46   22   23 1
  47   22   55 1
  48   22   56 1
  49   23   24 ar
  50   23   28 ar
  51   24   25 ar
  52   24   57 1
  53   25   30 1
  54   25   26 ar
  55   26   27 ar
  56   26   58 1
  57   27   28 ar
  58   27   59 1
  59   28   60 1
  60   29   61 1
  61   29   62 1
  62   30   31 1
  63   30   32 1
  64   30   33 1

#	End of record

