#	Name: ASD01814554
#	Creating user name:	WinNT
#	Creation time:	15. 06. 2019 19:32

#	Modifying user name:	WinNT
#	Modification time:	15. 06. 2019 19:32

#	Program:	/corina/corina34_cracker 3.40 0067  02.08.2006

@<TRIPOS>MOLECULE
ASD01814554
  56   59    0    0    0
SMALL
NO_CHARGES


@<TRIPOS>ATOM
   1 C1            -0.0168     1.3882     0.0097 C.ar    
   2 C2             0.0021    -0.0041     0.0020 C.ar    
   3 C3             1.1795    -0.6891    -0.0124 C.ar    
   4 C4             2.3944     0.0147    -0.0202 C.ar    
   5 C5             2.3745     1.4312    -0.0129 C.ar    
   6 C6             1.1424     2.1038     0.0024 C.ar    
   7 C7             3.6273    -0.6667    -0.0345 C.ar    
   8 C8             4.7911     0.0287    -0.0410 C.ar    
   9 C9             4.7929     1.4362    -0.0341 C.ar    
  10 C10            3.5923     2.1420    -0.0203 C.ar    
  11 O11            3.5945     3.4965    -0.0140 O.3     
  12 C12            3.5844     4.1511    -1.2841 C.3     
  13 C13            6.0721     2.1670    -0.0414 C.2     
  14 O14            6.0777     3.3832    -0.0354 O.2     
  15 N15            7.2362     1.4879    -0.0548 N.am    
  16 C16            3.6526    -2.1735    -0.0423 C.3     
  17 C17            3.5246    -2.6708    -1.4591 C.ar    
  18 C18            4.6515    -2.8812    -2.2314 C.ar    
  19 C19            2.2755    -2.9284    -2.0024 C.ar    
  20 C20            2.2059    -3.3847    -3.3100 C.ar    
  21 C21            3.3756    -3.5661    -4.0231 C.ar    
  22 N22            4.5474    -3.3162    -3.4718 N.ar    
  23 C23            8.5082     2.2146    -0.0621 C.3     
  24 C24            8.9030     2.5709     1.3744 C.3     
  25 C25            9.5992     1.3317    -0.6758 C.3     
  26 C26           10.9394     2.0685    -0.6073 C.3     
  27 O27           11.2318     2.3974     0.7522 O.3     
  28 C28           10.2702     3.2597     1.3636 C.3     
  29 O29            9.2767     1.0527    -2.0397 O.3     
  30 C30            3.3119    -4.0620    -5.4447 C.3     
  31 H31           -0.9635     1.9079     0.0170 H       
  32 H32           -0.9304    -0.5489     0.0080 H       
  33 H33            1.1785    -1.7691    -0.0175 H       
  34 H34            1.1136     3.1834     0.0085 H       
  35 H35            5.7301    -0.5049    -0.0514 H       
  36 H36            3.5874     5.2311    -1.1363 H       
  37 H37            4.4690     3.8595    -1.8503 H       
  38 H38            2.6891     3.8623    -1.8347 H       
  39 H39            7.2317     0.5179    -0.0596 H       
  40 H40            4.5938    -2.5232     0.3819 H       
  41 H41            2.8223    -2.5539     0.5527 H       
  42 H42            5.6285    -2.6868    -1.8142 H       
  43 H43            1.3780    -2.7777    -1.4209 H       
  44 H44            1.2496    -3.5959    -3.7653 H       
  45 H45            8.4048     3.1273    -0.6489 H       
  46 H46            8.1592     3.2442     1.8003 H       
  47 H47            8.9580     1.6617     1.9732 H       
  48 H48            9.6682     0.3976    -0.1184 H       
  49 H49           11.7271     1.4277    -1.0038 H       
  50 H50           10.8823     2.9826    -1.1983 H       
  51 H51           10.2043     4.1894     0.7984 H       
  52 H52           10.5757     3.4772     2.3871 H       
  53 H53            9.9262     0.4969    -2.4916 H       
  54 H54            3.2422    -3.2118    -6.1233 H       
  55 H55            4.2116    -4.6343    -5.6705 H       
  56 H56            2.4357    -4.6985    -5.5686 H       
@<TRIPOS>BOND
   1    1    2 ar
   2    1    6 ar
   3    1   31 1
   4    2    3 ar
   5    2   32 1
   6    3    4 ar
   7    3   33 1
   8    4    5 ar
   9    4    7 ar
  10    5    6 ar
  11    5   10 ar
  12    6   34 1
  13    7    8 ar
  14    7   16 1
  15    8    9 ar
  16    8   35 1
  17    9   10 ar
  18    9   13 1
  19   10   11 1
  20   11   12 1
  21   12   36 1
  22   12   37 1
  23   12   38 1
  24   13   14 2
  25   13   15 am
  26   15   23 1
  27   15   39 1
  28   16   17 1
  29   16   40 1
  30   16   41 1
  31   17   18 ar
  32   17   19 ar
  33   18   22 ar
  34   18   42 1
  35   19   20 ar
  36   19   43 1
  37   20   21 ar
  38   20   44 1
  39   21   22 ar
  40   21   30 1
  41   23   24 1
  42   23   25 1
  43   23   45 1
  44   24   28 1
  45   24   46 1
  46   24   47 1
  47   25   26 1
  48   25   29 1
  49   25   48 1
  50   26   27 1
  51   26   49 1
  52   26   50 1
  53   27   28 1
  54   28   51 1
  55   28   52 1
  56   29   53 1
  57   30   54 1
  58   30   55 1
  59   30   56 1

#	End of record

