#	Name: ASD01880076
#	Creating user name:	WinNT
#	Creation time:	15. 06. 2019 19:39

#	Modifying user name:	WinNT
#	Modification time:	15. 06. 2019 19:39

#	Program:	/corina/corina34_cracker 3.40 0067  02.08.2006

@<TRIPOS>MOLECULE
ASD01880076
  39   40    0    0    0
SMALL
NO_CHARGES


@<TRIPOS>ATOM
   1 C1            -0.0167     1.3776     0.0096 C.ar    
   2 C2             0.0021    -0.0041     0.0020 C.ar    
   3 N3             1.1443    -0.6632    -0.0120 N.ar    
   4 C4             2.3054    -0.0383    -0.0197 C.ar    
   5 C5             2.3651     1.3426    -0.0133 C.ar    
   6 C6             1.1850     2.0698     0.0019 C.ar    
   7 C7             3.6964     2.0488    -0.0217 C.3     
   8 N8             4.1154     2.2846    -1.4056 N.am    
   9 C9             3.6624     3.4150    -2.0894 C.ar    
  10 S10            5.1261     1.2108    -2.1591 S.o2    
  11 C11            4.0114     0.0118    -2.9404 C.3     
  12 O12            5.7918     1.9885    -3.1445 O.2     
  13 O13            5.8466     0.6025    -1.0960 O.2     
  14 C14            3.2756     4.5457    -1.3834 C.ar    
  15 C15            2.8266     5.6656    -2.0658 C.ar    
  16 C16            2.7648     5.6540    -3.4521 C.ar    
  17 C17            3.1503     4.5273    -4.1536 C.ar    
  18 C18            3.6038     3.4113    -3.4779 C.ar    
  19 C19            4.8281    -1.1555    -3.4983 C.3     
  20 O20            2.4467     6.7741    -1.3775 O.3     
  21 C21            1.9946     7.8913    -2.1454 C.3     
  22 F22            0.8782     7.5168    -2.9008 F       
  23 F23            1.6459     8.9379    -1.2851 F       
  24 F24            3.0172     8.3128    -3.0020 F       
  25 H25           -0.9553     1.9117     0.0170 H       
  26 H26           -0.9295    -0.5505     0.0080 H       
  27 H27            3.2203    -0.6121    -0.0308 H       
  28 H28            1.2010     3.1496     0.0072 H       
  29 H29            3.6050     3.0027     0.4978 H       
  30 H30            4.4390     1.4303     0.4824 H       
  31 H31            3.3028    -0.3611    -2.2008 H       
  32 H32            3.4683     0.4960    -3.7521 H       
  33 H33            3.3241     4.5528    -0.3046 H       
  34 H34            2.4145     6.5266    -3.9835 H       
  35 H35            3.1008     4.5209    -5.2325 H       
  36 H36            3.9048     2.5323    -4.0284 H       
  37 H37            5.3711    -1.6397    -2.6866 H       
  38 H38            4.1583    -1.8760    -3.9678 H       
  39 H39            5.5366    -0.7826    -4.2378 H       
@<TRIPOS>BOND
   1    1    2 ar
   2    1    6 ar
   3    1   25 1
   4    2    3 ar
   5    2   26 1
   6    3    4 ar
   7    4    5 ar
   8    4   27 1
   9    5    6 ar
  10    5    7 1
  11    6   28 1
  12    7    8 1
  13    7   29 1
  14    7   30 1
  15    8    9 1
  16    8   10 am
  17    9   14 ar
  18    9   18 ar
  19   10   11 1
  20   10   12 2
  21   10   13 2
  22   11   19 1
  23   11   31 1
  24   11   32 1
  25   14   15 ar
  26   14   33 1
  27   15   16 ar
  28   15   20 1
  29   16   17 ar
  30   16   34 1
  31   17   18 ar
  32   17   35 1
  33   18   36 1
  34   19   37 1
  35   19   38 1
  36   19   39 1
  37   20   21 1
  38   21   22 1
  39   21   23 1
  40   21   24 1

#	End of record

