#	Name: ASD08070104
#	Creating user name:	WinNT
#	Creation time:	15. 06. 2019 21:14

#	Modifying user name:	WinNT
#	Modification time:	15. 06. 2019 21:14

#	Program:	/corina/corina34_cracker 3.40 0067  02.08.2006

@<TRIPOS>MOLECULE
ASD08070104
  42   42    0    0    0
SMALL
NO_CHARGES


@<TRIPOS>ATOM
   1 C1            -0.0166     1.3716     0.0096 C.ar    
   2 C2             0.0021    -0.0041     0.0020 C.ar    
   3 C3             1.1758     2.0887     0.0020 C.ar    
   4 C4             2.3925     1.4224    -0.0131 C.ar    
   5 C5             2.4245     0.0388    -0.0208 C.ar    
   6 C6             1.2227    -0.6858    -0.0133 C.ar    
   7 C7             1.2471    -2.1586    -0.0214 C.2     
   8 O8             2.3102    -2.7491    -0.0347 O.2     
   9 C9            -1.1890    -4.8449    -0.6223 C.3     
  10 C10            0.1155    -4.3166    -0.0222 C.3     
  11 N11            0.0912    -2.8518    -0.0141 N.am    
  12 C12            0.2633    -4.8321     1.4108 C.3     
  13 C13            1.6238    -4.4078     1.9676 C.3     
  14 C14            1.7716    -4.9233     3.4005 C.3     
  15 O15            1.1485     3.4455     0.0091 O.3     
  16 C16           -0.1375     4.0684     0.0243 C.3     
  17 O17            3.6132    -0.6146    -0.0361 O.3     
  18 C18           -1.2771    -4.4335    -2.0932 C.3     
  19 C19           -2.5816    -4.9618    -2.6933 C.3     
  20 H20           -0.9602     1.8969     0.0169 H       
  21 H21           -0.9256    -0.5570     0.0082 H       
  22 H22            3.3152     1.9836    -0.0193 H       
  23 H23           -1.2092    -5.9322    -0.5472 H       
  24 H24           -2.0352    -4.4273    -0.0768 H       
  25 H25            0.9576    -4.6627    -0.6215 H       
  26 H26           -0.7567    -2.3808    -0.0035 H       
  27 H27           -0.5295    -4.4139     2.0309 H       
  28 H28            0.1923    -5.9198     1.4147 H       
  29 H29            2.4166    -4.8259     1.3474 H       
  30 H30            1.6948    -3.3201     1.9636 H       
  31 H31            0.9787    -4.5052     4.0207 H       
  32 H32            1.7006    -6.0110     3.4045 H       
  33 H33            2.7408    -4.6211     3.7972 H       
  34 H34           -0.6802     3.7599     0.9178 H       
  35 H35           -0.0165     5.1517     0.0286 H       
  36 H36           -0.6968     3.7688    -0.8620 H       
  37 H37            3.9667    -0.8088     0.8428 H       
  38 H38           -1.2569    -3.3462    -2.1682 H       
  39 H39           -0.4309    -4.8511    -2.6387 H       
  40 H40           -3.4278    -4.5442    -2.1479 H       
  41 H41           -2.6444    -4.6687    -3.7413 H       
  42 H42           -2.6019    -6.0491    -2.6183 H       
@<TRIPOS>BOND
   1    1    2 ar
   2    1    3 ar
   3    1   20 1
   4    2    6 ar
   5    2   21 1
   6    3    4 ar
   7    3   15 1
   8    4    5 ar
   9    4   22 1
  10    5    6 ar
  11    5   17 1
  12    6    7 1
  13    7    8 2
  14    7   11 am
  15    9   10 1
  16    9   18 1
  17    9   23 1
  18    9   24 1
  19   10   12 1
  20   10   11 1
  21   10   25 1
  22   11   26 1
  23   12   13 1
  24   12   27 1
  25   12   28 1
  26   13   14 1
  27   13   29 1
  28   13   30 1
  29   14   31 1
  30   14   32 1
  31   14   33 1
  32   15   16 1
  33   16   34 1
  34   16   35 1
  35   16   36 1
  36   17   37 1
  37   18   19 1
  38   18   38 1
  39   18   39 1
  40   19   40 1
  41   19   41 1
  42   19   42 1

#	End of record

