#	Name: ASD03730232
#	Creating user name:	WinNT
#	Creation time:	15. 06. 2019 20:44

#	Modifying user name:	WinNT
#	Modification time:	15. 06. 2019 20:44

#	Program:	/corina/corina34_cracker 3.40 0067  02.08.2006

@<TRIPOS>MOLECULE
ASD03730232
  58   63    0    0    0
SMALL
NO_CHARGES


@<TRIPOS>ATOM
   1 C1            -1.8308     3.0441     2.1783 C.1     
   2 C2            -0.9191     2.9275     1.0802 C.ar    
   3 C3             0.2721     3.6526     1.0804 C.ar    
   4 C4             1.1518     3.5336     0.0101 C.ar    
   5 C5             0.8393     2.6912    -1.0565 C.ar    
   6 C6            -0.3418     1.9752    -1.0528 C.ar    
   7 C7            -1.2178     2.0828     0.0087 C.ar    
   8 N8            -2.5540     3.1366     3.0494 N.1     
   9 O9            -1.8763     8.7420    -0.2934 O.3     
  10 C10           -3.1941     8.2557     0.0232 C.3     
  11 O11           -3.4216     7.2226    -0.9535 O.3     
  12 C12           -2.1820     6.7563    -1.2868 C.ar    
  13 C13           -1.2323     7.6915    -0.8819 C.ar    
  14 C14           -1.7810     5.5897    -1.9126 C.ar    
  15 C15           -0.4312     5.3412    -2.1426 C.ar    
  16 C16            0.5078     6.2868    -1.7417 C.ar    
  17 C17            0.1113     7.4489    -1.1133 C.ar    
  18 O18            0.1705     4.2611    -2.7184 O.3     
  19 C19            1.8551     5.7528    -2.1485 C.3     
  20 C20            1.5052     4.6207    -3.1240 C.3     
  21 N21            3.8425     6.8781    -2.0657 N.am    
  22 C22            2.7113     6.8034    -2.7952 C.2     
  23 C23            2.6510     5.2573    -0.9780 C.ar    
  24 C24            2.4214     4.3023     0.0026 C.ar    
  25 C25            3.3867     4.0676     0.9810 C.ar    
  26 C26            4.5651     4.7873     0.9670 C.ar    
  27 C27            4.7924     5.7370    -0.0082 C.ar    
  28 C28            3.8371     5.9826    -0.9929 C.ar    
  29 C29            4.9485     7.7917    -2.3629 C.3     
  30 C30            4.7275     9.1158    -1.6289 C.3     
  31 C31            5.8826    10.0699    -1.9394 C.3     
  32 C32            5.6617    11.3941    -1.2054 C.3     
  33 C33            6.8168    12.3482    -1.5158 C.3     
  34 O34            2.4390     7.4559    -3.7806 O.2     
  35 H35            0.5103     4.3041     1.9081 H       
  36 H36            1.5225     2.5987    -1.8878 H       
  37 H37           -0.5789     1.3249    -1.8819 H       
  38 H38           -2.1376     1.5168     0.0084 H       
  39 H39           -3.2176     7.8417     1.0312 H       
  40 H40           -3.9315     9.0515    -0.0823 H       
  41 H41           -2.5203     4.8669    -2.2247 H       
  42 H42            0.8507     8.1717    -0.8012 H       
  43 H43            2.1871     3.7792    -3.0011 H       
  44 H44            1.5135     4.9800    -4.1531 H       
  45 H45            3.2133     3.3261     1.7468 H       
  46 H46            5.3135     4.6061     1.7243 H       
  47 H47            5.7175     6.2944    -0.0081 H       
  48 H48            5.8868     7.3457    -2.0332 H       
  49 H49            4.9905     7.9741    -3.4368 H       
  50 H50            3.7892     9.5619    -1.9587 H       
  51 H51            4.6855     8.9334    -0.5551 H       
  52 H52            6.8209     9.6239    -1.6096 H       
  53 H53            5.9246    10.2524    -3.0132 H       
  54 H54            4.7234    11.8401    -1.5351 H       
  55 H55            5.6197    11.2117    -0.1316 H       
  56 H56            7.7551    11.9021    -1.1861 H       
  57 H57            6.8588    12.5306    -2.5896 H       
  58 H58            6.6594    13.2915    -0.9929 H       
@<TRIPOS>BOND
   1    1    2 1
   2    1    8 3
   3    2    3 ar
   4    2    7 ar
   5    3    4 ar
   6    3   35 1
   7    4    5 ar
   8    4   24 1
   9    5    6 ar
  10    5   36 1
  11    6    7 ar
  12    6   37 1
  13    7   38 1
  14    9   10 1
  15    9   13 1
  16   10   11 1
  17   10   39 1
  18   10   40 1
  19   11   12 1
  20   12   13 ar
  21   12   14 ar
  22   13   17 ar
  23   14   15 ar
  24   14   41 1
  25   15   16 ar
  26   15   18 1
  27   16   17 ar
  28   16   19 1
  29   17   42 1
  30   18   20 1
  31   19   20 1
  32   19   22 1
  33   19   23 1
  34   20   43 1
  35   20   44 1
  36   21   22 am
  37   21   28 1
  38   21   29 1
  39   22   34 2
  40   23   24 ar
  41   23   28 ar
  42   24   25 ar
  43   25   26 ar
  44   25   45 1
  45   26   27 ar
  46   26   46 1
  47   27   28 ar
  48   27   47 1
  49   29   30 1
  50   29   48 1
  51   29   49 1
  52   30   31 1
  53   30   50 1
  54   30   51 1
  55   31   32 1
  56   31   52 1
  57   31   53 1
  58   32   33 1
  59   32   54 1
  60   32   55 1
  61   33   56 1
  62   33   57 1
  63   33   58 1

#	End of record

