#	Name: ASD05730043
#	Creating user name:	WinNT
#	Creation time:	15. 06. 2019 21:02

#	Modifying user name:	WinNT
#	Modification time:	15. 06. 2019 21:02

#	Program:	/corina/corina34_cracker 3.40 0067  02.08.2006

@<TRIPOS>MOLECULE
ASD05730043
  74   79    0    0    0
SMALL
NO_CHARGES


@<TRIPOS>ATOM
   1 N1            -1.2168     2.2356    -0.6065 N.3     
   2 C2            -1.0451     0.8476    -0.5230 C.ar    
   3 C3            -0.8837     0.0976    -1.6792 C.ar    
   4 C4            -0.7148    -1.2712    -1.5972 C.ar    
   5 C5            -0.7060    -1.8974    -0.3582 C.ar    
   6 C6            -0.8670    -1.1479     0.8002 C.ar    
   7 C7            -1.0306     0.2220     0.7192 C.ar    
   8 N8            -0.5352    -3.2851    -0.2763 N.pl3   
   9 C9            -1.0563    -4.1041    -1.2585 C.ar    
  10 N10           -0.7814    -5.3991    -1.2211 N.ar    
  11 C11           -1.2646    -6.2190    -2.1478 C.ar    
  12 C12           -2.0756    -5.6816    -3.1713 C.ar    
  13 C13           -2.3375    -4.3027    -3.1666 C.ar    
  14 N14           -1.8194    -3.5647    -2.2030 N.ar    
  15 N15           -0.9830    -7.5613    -2.1149 N.am    
  16 C16           -1.4719    -8.3927    -3.0547 C.2     
  17 C17           -2.3173    -7.8737    -4.1338 C.2     
  18 C18           -2.6074    -6.5231    -4.1735 C.2     
  19 C19           -0.1393    -8.0970    -1.0438 C.3     
  20 O20           -1.2101    -9.5812    -3.0080 O.2     
  21 C21           -2.8538    -8.7833    -5.1651 C.2     
  22 N22           -4.1718    -9.0912    -5.3747 N.am    
  23 C23           -1.0175    -8.5094     0.1393 C.3     
  24 C24           -0.0626     2.8708    -1.2577 C.3     
  25 F25           -1.1868     0.9517     1.8454 F       
  26 C26           -2.4639     2.5707    -1.3080 C.3     
  27 C27           -2.6537     4.0894    -1.3081 C.3     
  28 N28           -1.4995     4.7246    -1.9593 N.3     
  29 C29           -0.2524     4.3895    -1.2579 C.3     
  30 C30            1.2141     2.5160    -0.4928 C.3     
  31 N31           -2.1573    -9.4483    -6.0619 N.2     
  32 N32           -2.9493   -10.1422    -6.7992 N.2     
  33 C33           -4.1865    -9.9612    -6.4231 C.2     
  34 S34           -5.4773    -8.5242    -4.5283 S.o2    
  35 C35           -5.2529    -9.1850    -2.8539 C.3     
  36 C36           -6.4707    -8.8297    -1.9953 C.3     
  37 C37           -6.3086    -9.4580    -0.6087 C.3     
  38 O38           -6.1542   -10.8723    -0.7431 O.3     
  39 C39           -5.0051   -11.2648    -1.4965 C.3     
  40 C40           -5.1149   -10.7092    -2.9188 C.3     
  41 O41           -5.3122    -7.1128    -4.5336 O.2     
  42 O42           -6.5954    -9.1334    -5.1591 O.2     
  43 H43           -0.8904     0.5839    -2.6435 H       
  44 H44           -0.5900    -1.8545    -2.4976 H       
  45 H45           -0.8600    -1.6351     1.7641 H       
  46 H46           -0.0510    -3.6709     0.4704 H       
  47 H47           -2.9534    -3.8557    -3.9330 H       
  48 H48           -3.2280    -6.1176    -4.9589 H       
  49 H49            0.4065    -8.9660    -1.4114 H       
  50 H50            0.5683    -7.3329    -0.7220 H       
  51 H51           -1.5633    -7.6405     0.5069 H       
  52 H52           -1.7251    -9.2735    -0.1825 H       
  53 H53           -0.3897    -8.9080     0.9362 H       
  54 H54            0.0176     2.5139    -2.2845 H       
  55 H55           -2.4112     2.2107    -2.3354 H       
  56 H56           -3.3050     2.0992    -0.7997 H       
  57 H57           -3.5632     4.3422    -1.8531 H       
  58 H58           -2.7336     4.4460    -0.2812 H       
  59 H59           -1.4469     4.4670    -2.9335 H       
  60 H60           -0.3050     4.7495    -0.2304 H       
  61 H61            0.5887     4.8610    -1.7661 H       
  62 H62            1.3480     1.4343    -0.4912 H       
  63 H63            2.0700     2.9873    -0.9760 H       
  64 H64            1.1340     2.8738     0.5337 H       
  65 H65           -5.0612   -10.4173    -6.8628 H       
  66 H66           -4.3554    -8.7549    -2.4094 H       
  67 H67           -6.5443    -7.7466    -1.8981 H       
  68 H68           -7.3742    -9.2163    -2.4670 H       
  69 H69           -5.4273    -9.0408    -0.1215 H       
  70 H70           -7.1921    -9.2443    -0.0072 H       
  71 H71           -4.1068   -10.8713    -1.0208 H       
  72 H72           -4.9496   -12.3528    -1.5346 H       
  73 H73           -5.9910   -11.1337    -3.4091 H       
  74 H74           -4.2189   -10.9701    -3.4820 H       
@<TRIPOS>BOND
   1    1    2 1
   2    1   26 1
   3    1   24 1
   4    2    3 ar
   5    2    7 ar
   6    3    4 ar
   7    3   43 1
   8    4    5 ar
   9    4   44 1
  10    5    6 ar
  11    5    8 1
  12    6    7 ar
  13    6   45 1
  14    7   25 1
  15    8    9 1
  16    8   46 1
  17    9   10 ar
  18    9   14 ar
  19   10   11 ar
  20   11   12 ar
  21   11   15 1
  22   12   13 ar
  23   12   18 1
  24   13   14 ar
  25   13   47 1
  26   15   16 am
  27   15   19 1
  28   16   17 1
  29   16   20 2
  30   17   18 2
  31   17   21 1
  32   18   48 1
  33   19   23 1
  34   19   49 1
  35   19   50 1
  36   21   22 1
  37   21   31 2
  38   22   34 am
  39   22   33 1
  40   23   51 1
  41   23   52 1
  42   23   53 1
  43   24   30 1
  44   24   29 1
  45   24   54 1
  46   26   27 1
  47   26   55 1
  48   26   56 1
  49   27   28 1
  50   27   57 1
  51   27   58 1
  52   28   29 1
  53   28   59 1
  54   29   60 1
  55   29   61 1
  56   30   62 1
  57   30   63 1
  58   30   64 1
  59   31   32 1
  60   32   33 2
  61   33   65 1
  62   34   35 1
  63   34   41 2
  64   34   42 2
  65   35   36 1
  66   35   40 1
  67   35   66 1
  68   36   37 1
  69   36   67 1
  70   36   68 1
  71   37   38 1
  72   37   69 1
  73   37   70 1
  74   38   39 1
  75   39   40 1
  76   39   71 1
  77   39   72 1
  78   40   73 1
  79   40   74 1

#	End of record

