#	Name: ASD02039307
#	Creating user name:	WinNT
#	Creation time:	15. 06. 2019 20:18

#	Modifying user name:	WinNT
#	Modification time:	15. 06. 2019 20:18

#	Program:	/corina/corina34_cracker 3.40 0067  02.08.2006

@<TRIPOS>MOLECULE
ASD02039307
  46   48    0    0    0
SMALL
NO_CHARGES


@<TRIPOS>ATOM
   1 C1            -0.1345     1.5592    -0.1871 C.ar    
   2 C2            -0.1559     0.1782    -0.0589 C.ar    
   3 C3            -1.3632    -0.4921    -0.1424 C.ar    
   4 N4            -2.4880     0.1633    -0.3418 N.ar    
   5 C5            -2.5106     1.4836    -0.4696 C.ar    
   6 C6            -1.3330     2.2227    -0.3899 C.ar    
   7 C7            -3.8020     2.1791    -0.6936 C.ar    
   8 C8             1.1630     2.3210    -0.1014 C.3     
   9 N9             1.8163     2.3218    -1.4127 N.am    
  10 C10            1.4074     3.2890    -2.4342 C.3     
  11 C11            2.7935     1.4327    -1.6792 C.2     
  12 C12            3.1433     0.4027    -0.6857 C.2     
  13 C13            4.1488    -0.5130    -0.7932 C.2     
  14 C14            2.5760     4.2260    -2.7462 C.3     
  15 N15            2.5276     0.1956     0.5064 N.2     
  16 C16            3.1090    -0.7983     1.1135 C.2     
  17 N17            4.1203    -1.2621     0.3341 N.pl3   
  18 O18            3.3865     1.4806    -2.7400 O.2     
  19 C19            5.0185    -2.3740     0.6554 C.3     
  20 C20            0.9971     2.5445    -3.7063 C.3     
  21 C21           -4.9991     1.4622    -0.7723 C.ar    
  22 C22           -3.8551     3.5693    -0.8258 C.ar    
  23 C23           -5.0774     4.1760    -1.0327 C.ar    
  24 N24           -6.1840     3.4618    -1.1059 N.ar    
  25 C25           -6.1781     2.1487    -0.9813 C.ar    
  26 H26            0.7611    -0.3685     0.1041 H       
  27 H27           -1.3835    -1.5673    -0.0430 H       
  28 H28           -1.3530     3.2975    -0.4941 H       
  29 H29            0.9621     3.3475     0.2050 H       
  30 H30            1.8162     1.8448     0.6297 H       
  31 H31            0.5630     3.8715    -2.0658 H       
  32 H32            4.8358    -0.6201    -1.6197 H       
  33 H33            3.4478     3.6371    -3.0312 H       
  34 H34            2.3012     4.8888    -3.5667 H       
  35 H35            2.8115     4.8196    -1.8629 H       
  36 H36            2.8338    -1.1891     2.0820 H       
  37 H37            4.5916    -3.3052     0.2829 H       
  38 H38            5.9878    -2.2053     0.1863 H       
  39 H39            5.1443    -2.4387     1.7362 H       
  40 H40            0.1123     1.9407    -3.5046 H       
  41 H41            0.7736     3.2651    -4.4930 H       
  42 H42            1.8131     1.8972    -4.0277 H       
  43 H43           -5.0016     0.3870    -0.6715 H       
  44 H44           -2.9531     4.1602    -0.7666 H       
  45 H45           -5.1286     5.2498    -1.1358 H       
  46 H46           -7.1077     1.6031    -1.0478 H       
@<TRIPOS>BOND
   1    1    2 ar
   2    1    8 1
   3    1    6 ar
   4    2    3 ar
   5    2   26 1
   6    3    4 ar
   7    3   27 1
   8    4    5 ar
   9    5    6 ar
  10    5    7 1
  11    6   28 1
  12    7   21 ar
  13    7   22 ar
  14    8    9 1
  15    8   29 1
  16    8   30 1
  17    9   10 1
  18    9   11 am
  19   10   20 1
  20   10   14 1
  21   10   31 1
  22   11   12 1
  23   11   18 2
  24   12   13 2
  25   12   15 1
  26   13   17 1
  27   13   32 1
  28   14   33 1
  29   14   34 1
  30   14   35 1
  31   15   16 2
  32   16   17 1
  33   16   36 1
  34   17   19 1
  35   19   37 1
  36   19   38 1
  37   19   39 1
  38   20   40 1
  39   20   41 1
  40   20   42 1
  41   21   25 ar
  42   21   43 1
  43   22   23 ar
  44   22   44 1
  45   23   24 ar
  46   23   45 1
  47   24   25 ar
  48   25   46 1

#	End of record

