#	Name: ASD00431223
#	Creating user name:	WinNT
#	Creation time:	15. 06. 2019 18:35

#	Modifying user name:	WinNT
#	Modification time:	15. 06. 2019 18:35

#	Program:	/corina/corina34_cracker 3.40 0067  02.08.2006

@<TRIPOS>MOLECULE
ASD00431223
  31   32    0    0    0
SMALL
NO_CHARGES


@<TRIPOS>ATOM
   1 S1            -1.6816     1.4445     1.6265 S.3     
   2 C2            -1.4253    -0.2265     1.3748 C.2     
   3 N3            -1.6369    -0.8926     2.4732 N.2     
   4 C4            -1.9912    -0.2112     3.5301 C.2     
   5 C5            -2.0887     1.1412     3.3137 C.2     
   6 C6            -2.4494     2.1118     4.2690 C.2     
   7 O7            -2.5011     3.2841     3.9543 O.2     
   8 O8            -1.0542    -0.7797     0.1985 O.3     
   9 C9            -0.7902    -2.1133     0.1754 C.ar    
  10 C10           -1.8144    -3.0268     0.3781 C.ar    
  11 C11           -1.5461    -4.3814     0.3547 C.ar    
  12 C12           -0.2525    -4.8285     0.1288 C.ar    
  13 C13            0.7716    -3.9151    -0.0739 C.ar    
  14 C14            0.5023    -2.5606    -0.0566 C.ar    
  15 O15            0.0117    -6.1621     0.1067 O.3     
  16 C16           -1.0736    -7.0435     0.4022 C.3     
  17 C17           -0.7889    -8.4220    -0.1974 C.3     
  18 C18           -1.2298    -7.1694     1.9190 C.3     
  19 H19           -2.1895    -0.6702     4.4874 H       
  20 H20           -2.6800     1.8137     5.2812 H       
  21 H21           -2.8214    -2.6787     0.5546 H       
  22 H22           -2.3434    -5.0926     0.5125 H       
  23 H23            1.7788    -4.2633    -0.2494 H       
  24 H24            1.2988    -1.8495    -0.2192 H       
  25 H25           -1.9930    -6.6439    -0.0258 H       
  26 H26            0.1305    -8.8215     0.2306 H       
  27 H27           -1.6167    -9.0943     0.0280 H       
  28 H28           -0.6776    -8.3323    -1.2780 H       
  29 H29           -0.3104    -7.5689     2.3470 H       
  30 H30           -1.4327    -6.1873     2.3461 H       
  31 H31           -2.0577    -7.8417     2.1444 H       
@<TRIPOS>BOND
   1    1    2 1
   2    1    5 1
   3    2    3 2
   4    2    8 1
   5    3    4 1
   6    4    5 2
   7    4   19 1
   8    5    6 1
   9    6    7 2
  10    6   20 1
  11    8    9 1
  12    9   10 ar
  13    9   14 ar
  14   10   11 ar
  15   10   21 1
  16   11   12 ar
  17   11   22 1
  18   12   13 ar
  19   12   15 1
  20   13   14 ar
  21   13   23 1
  22   14   24 1
  23   15   16 1
  24   16   17 1
  25   16   18 1
  26   16   25 1
  27   17   26 1
  28   17   27 1
  29   17   28 1
  30   18   29 1
  31   18   30 1
  32   18   31 1

#	End of record

