#	Name: ASD01190152
#	Creating user name:	WinNT
#	Creation time:	15. 06. 2019 19:07

#	Modifying user name:	WinNT
#	Modification time:	15. 06. 2019 19:07

#	Program:	/corina/corina34_cracker 3.40 0067  02.08.2006

@<TRIPOS>MOLECULE
ASD01190152
  26   27    0    0    0
SMALL
NO_CHARGES


@<TRIPOS>ATOM
   1 C1            -0.0184     1.5028     0.0103 C.2     
   2 C2             0.0021    -0.0041     0.0020 C.3     
   3 S3             1.3555     3.9773     0.0105 S.3     
   4 C4             3.0582     3.8305    -0.0066 C.2     
   5 N5             3.4098     2.5749    -0.0167 N.2     
   6 C6             2.4543     1.6846    -0.0123 C.2     
   7 C7             1.1909     2.2230     0.0026 C.2     
   8 N8             3.9363     4.8905    -0.0097 N.3     
   9 C9             5.3292     4.4206    -0.0254 C.3     
  10 C10            6.2687     5.6278    -0.0887 C.3     
  11 O11            6.0013     6.4922     1.0189 O.3     
  12 C12            4.6538     6.9691     1.0648 C.3     
  13 C13            3.6980     5.7755     1.1398 C.3     
  14 F14           -1.3104    -0.4883     0.0119 F       
  15 F15            0.6569    -0.4552    -1.1490 F       
  16 F16            0.6787    -0.4675     1.1354 F       
  17 O17           -1.0788     2.0960     0.0186 O.2     
  18 H18            2.6408     0.6208    -0.0202 H       
  19 H19            5.5310     3.8496     0.8809 H       
  20 H20            5.4902     3.7880    -0.8983 H       
  21 H21            7.3030     5.2869    -0.0429 H       
  22 H22            6.1039     6.1687    -1.0205 H       
  23 H23            4.5201     7.5982     1.9448 H       
  24 H24            4.4421     7.5490     0.1665 H       
  25 H25            2.6681     6.1319     1.1174 H       
  26 H26            3.8736     5.2261     2.0647 H       
@<TRIPOS>BOND
   1    1    2 1
   2    1    7 1
   3    1   17 2
   4    2   14 1
   5    2   15 1
   6    2   16 1
   7    3    4 1
   8    3    7 1
   9    4    5 2
  10    4    8 1
  11    5    6 1
  12    6    7 2
  13    6   18 1
  14    8    9 1
  15    8   13 1
  16    9   10 1
  17    9   19 1
  18    9   20 1
  19   10   11 1
  20   10   21 1
  21   10   22 1
  22   11   12 1
  23   12   13 1
  24   12   23 1
  25   12   24 1
  26   13   25 1
  27   13   26 1

#	End of record

