#	Name: ASD06352007
#	Creating user name:	WinNT
#	Creation time:	15. 06. 2019 21:06

#	Modifying user name:	WinNT
#	Modification time:	15. 06. 2019 21:06

#	Program:	/corina/corina34_cracker 3.40 0067  02.08.2006

@<TRIPOS>MOLECULE
ASD06352007
 140  140    0    0    0
SMALL
NO_CHARGES


@<TRIPOS>ATOM
   1 C1            -0.2897    -1.3157    -0.1809 C.2     
   2 O2            -0.3383    -2.4867    -0.4932 O.2     
   3 N3             1.9997    -1.7311     0.5201 N.3     
   4 C4             1.0331    -0.6829     0.1665 C.3     
   5 C5             1.5532     0.1054    -1.0372 C.3     
   6 C6             2.8962     0.7479    -0.6845 C.3     
   7 C7             1.7370    -0.8407    -2.2256 C.3     
   8 C8            -3.6540    -0.1292    -0.9786 C.2     
   9 O9            -3.3911     1.0425    -0.8085 O.2     
  10 N10           -1.4179    -0.5792    -0.1500 N.am    
  11 C11           -2.7030    -1.1929    -0.4936 C.3     
  12 C12           -3.2893    -1.8755     0.7438 C.3     
  13 C13           -2.3973    -3.0507     1.1487 C.3     
  14 C14           -3.3617    -0.8699     1.8947 C.3     
  15 C15           -7.1426     0.1289    -1.4789 C.2     
  16 O16           -7.2819    -0.9214    -0.8888 O.2     
  17 N17           -4.7967    -0.4799    -1.6012 N.am    
  18 C18           -5.7780     0.5457    -1.9637 C.3     
  19 C19           -5.8054     0.7105    -3.4846 C.3     
  20 C20           -4.4543     1.1752    -3.9639 C.2     
  21 O21           -3.5461     1.3173    -3.1728 O.2     
  22 N22           -4.2553     1.4329    -5.2717 N.am    
  23 C23          -10.5444     1.5733    -1.6028 C.2     
  24 O24          -10.1905     2.5659    -2.2031 O.2     
  25 N25           -8.2084     0.9234    -1.7012 N.am    
  26 C26           -9.5350     0.5183    -1.2300 C.3     
  27 C27          -13.9902     2.3746    -0.6822 C.2     
  28 O28          -14.2148     1.3546    -0.0657 O.2     
  29 N29          -11.8405     1.4138    -1.2692 N.am    
  30 C30          -12.8218     2.4395    -1.6317 C.3     
  31 C31          -13.3113     2.1946    -3.0604 C.3     
  32 C32          -13.8311     0.7608    -3.1827 C.3     
  33 C33          -14.4345     0.5540    -4.5734 C.3     
  34 C34          -12.1537     2.4026    -4.0389 C.3     
  35 C35          -17.0074     2.4836    -0.2543 C.2     
  36 O36          -16.7158     1.7958    -1.2097 O.2     
  37 N37          -14.7857     3.4501    -0.5182 N.am    
  38 C38          -16.0201     3.4892     0.2795 C.3     
  39 C39          -16.6017     4.9132     0.1543 C.3     
  40 C40          -15.9664     5.4335    -1.1622 C.3     
  41 C41          -14.5588     4.7839    -1.1037 C.3     
  42 C42          -20.5730     1.7998     0.1721 C.2     
  43 O43          -20.7507     2.8214     0.8010 O.2     
  44 N44          -18.2144     2.3486     0.3299 N.am    
  45 C45          -19.1742     1.3710    -0.1890 C.3     
  46 C46          -18.8870    -0.0009     0.4244 C.3     
  47 C47          -17.4280    -0.3808     0.1638 C.3     
  48 O48          -19.1220     0.0485     1.8331 O.3     
  49 C49          -23.3185     0.9786     1.5344 C.2     
  50 O50          -22.5000     0.3461     2.1674 O.2     
  51 N51          -21.6266     1.0480    -0.2039 N.am    
  52 C52          -22.9864     1.4649     0.1472 C.3     
  53 C53          -23.9774     0.8673    -0.8537 C.3     
  54 C54          -23.7188     1.4571    -2.2415 C.3     
  55 C55          -24.7099     0.8595    -3.2423 C.3     
  56 N56          -24.4623     1.4243    -4.5712 N.pl3   
  57 C57          -25.2352     1.0338    -5.6390 C.2     
  58 N58          -25.0149     1.5362    -6.8214 N.2     
  59 N59          -26.2405     0.1133    -5.4597 N.pl3   
  60 C60          -25.3559    -0.6432     3.3474 C.2     
  61 O61          -25.4395    -1.2009     2.2788 O.2     
  62 N62          -24.5253     1.2466     2.0715 N.am    
  63 C63          -24.8481     0.7739     3.4200 C.3     
  64 C64          -25.9264     1.6713     4.0305 C.3     
  65 C65          -25.4605     3.1281     3.9900 C.3     
  66 O66          -27.1369     1.5375     3.2830 O.3     
  67 O67          -25.7153    -1.2857     4.4698 O.3     
  68 H68            2.1384    -2.3693    -0.2491 H       
  69 H69            2.8756    -1.3293     0.8191 H       
  70 H70            0.9022    -0.0089     1.0131 H       
  71 H71            0.8360     0.8832    -1.2996 H       
  72 H72            3.6133    -0.0299    -0.4222 H       
  73 H73            3.2667     1.3095    -1.5421 H       
  74 H74            2.7653     1.4219     0.1621 H       
  75 H75            0.7802    -1.2984    -2.4769 H       
  76 H76            2.1075    -0.2791    -3.0831 H       
  77 H77            2.4541    -1.6185    -1.9632 H       
  78 H78           -1.3790     0.3573     0.0997 H       
  79 H79           -2.5536    -1.9326    -1.2801 H       
  80 H80           -4.2909    -2.2408     0.5170 H       
  81 H81           -1.3957    -2.6854     1.3756 H       
  82 H82           -2.8150    -3.5370     2.0303 H       
  83 H83           -2.3457    -3.7671     0.3288 H       
  84 H84           -4.0629    -0.0754     1.6394 H       
  85 H85           -3.6998    -1.3763     2.7988 H       
  86 H86           -2.3740    -0.4418     2.0658 H       
  87 H87           -4.9694    -1.4115    -1.8094 H       
  88 H88           -5.5015     1.4929    -1.5005 H       
  89 H89           -6.0467    -0.2455    -3.9493 H       
  90 H90           -6.5607     1.4477    -3.7566 H       
  91 H91           -4.9816     1.3192    -5.9045 H       
  92 H92           -3.3856     1.7320    -5.5803 H       
  93 H93           -8.0971     1.7635    -2.1732 H       
  94 H94           -9.5155     0.4009    -0.1465 H       
  95 H95           -9.8115    -0.4289    -1.6931 H       
  96 H96          -12.1236     0.6199    -0.7891 H       
  97 H97          -12.3579     3.4239    -1.5703 H       
  98 H98          -14.1145     2.8934    -3.2940 H       
  99 H99          -13.0075     0.0620    -3.0364 H       
 100 H100         -14.5952     0.5855    -2.4254 H       
 101 H101         -14.8048    -0.4675    -4.6606 H       
 102 H102         -15.2581     1.2528    -4.7198 H       
 103 H103         -13.6704     0.7293    -5.3307 H       
 104 H104         -12.5025     2.2282    -5.0568 H       
 105 H105         -11.7834     3.4241    -3.9518 H       
 106 H106         -11.3505     1.7038    -3.8053 H       
 107 H107         -15.7943     3.2689     1.3229 H       
 108 H108         -17.6880     4.8802     0.0716 H       
 109 H109         -16.2968     5.5300     0.9997 H       
 110 H110         -16.5256     5.0846    -2.0303 H       
 111 H111         -15.8934     6.5210    -1.1576 H       
 112 H112         -13.8945     5.3693    -0.4680 H       
 113 H113         -14.1420     4.6920    -2.1066 H       
 114 H114         -18.4476     2.8987     1.0941 H       
 115 H115         -19.0812     1.3108    -1.2734 H       
 116 H116         -19.5425    -0.7454    -0.0274 H       
 117 H117         -16.7724     0.3637     0.6156 H       
 118 H118         -17.2233    -1.3581     0.6008 H       
 119 H119         -17.2487    -0.4185    -0.9107 H       
 120 H120         -18.9594    -0.7889     2.2886 H       
 121 H121         -21.4844     0.2309    -0.7069 H       
 122 H122         -23.0519     2.5525     0.1181 H       
 123 H123         -23.8501    -0.2146    -0.8892 H       
 124 H124         -24.9950     1.1033    -0.5424 H       
 125 H125         -23.8462     2.5391    -2.2060 H       
 126 H126         -22.7012     1.2211    -2.5528 H       
 127 H127         -24.5825    -0.2224    -3.2779 H       
 128 H128         -25.7275     1.0956    -2.9311 H       
 129 H129         -23.7530     2.0738    -4.6978 H       
 130 H130         -25.5603     1.2607    -7.5748 H       
 131 H131         -26.4045    -0.2607    -4.5798 H       
 132 H132         -26.7859    -0.1623    -6.2131 H       
 133 H133         -25.1799     1.7525     1.5652 H       
 134 H134         -23.9529     0.8076     4.0409 H       
 135 H135         -26.1032     1.3750     5.0644 H       
 136 H136         -26.2287     3.7675     4.4249 H       
 137 H137         -24.5371     3.2302     4.5601 H       
 138 H138         -25.2837     3.4244     2.9560 H       
 139 H139         -27.8659     2.0795     3.6145 H       
 140 H140         -26.0349    -2.1932     4.3730 H       
@<TRIPOS>BOND
   1    1    2 2
   2    1    4 1
   3    1   10 am
   4    3    4 1
   5    3   68 1
   6    3   69 1
   7    4    5 1
   8    4   70 1
   9    5    6 1
  10    5    7 1
  11    5   71 1
  12    6   72 1
  13    6   73 1
  14    6   74 1
  15    7   75 1
  16    7   76 1
  17    7   77 1
  18    8    9 2
  19    8   11 1
  20    8   17 am
  21   10   11 1
  22   10   78 1
  23   11   12 1
  24   11   79 1
  25   12   13 1
  26   12   14 1
  27   12   80 1
  28   13   81 1
  29   13   82 1
  30   13   83 1
  31   14   84 1
  32   14   85 1
  33   14   86 1
  34   15   16 2
  35   15   18 1
  36   15   25 am
  37   17   18 1
  38   17   87 1
  39   18   19 1
  40   18   88 1
  41   19   20 1
  42   19   89 1
  43   19   90 1
  44   20   21 2
  45   20   22 am
  46   22   91 1
  47   22   92 1
  48   23   24 2
  49   23   26 1
  50   23   29 am
  51   25   26 1
  52   25   93 1
  53   26   94 1
  54   26   95 1
  55   27   28 2
  56   27   30 1
  57   27   37 am
  58   29   30 1
  59   29   96 1
  60   30   31 1
  61   30   97 1
  62   31   32 1
  63   31   34 1
  64   31   98 1
  65   32   33 1
  66   32   99 1
  67   32  100 1
  68   33  101 1
  69   33  102 1
  70   33  103 1
  71   34  104 1
  72   34  105 1
  73   34  106 1
  74   35   36 2
  75   35   44 am
  76   35   38 1
  77   37   38 1
  78   37   41 1
  79   38   39 1
  80   38  107 1
  81   39   40 1
  82   39  108 1
  83   39  109 1
  84   40   41 1
  85   40  110 1
  86   40  111 1
  87   41  112 1
  88   41  113 1
  89   42   43 2
  90   42   45 1
  91   42   51 am
  92   44   45 1
  93   44  114 1
  94   45   46 1
  95   45  115 1
  96   46   47 1
  97   46   48 1
  98   46  116 1
  99   47  117 1
 100   47  118 1
 101   47  119 1
 102   48  120 1
 103   49   50 2
 104   49   52 1
 105   49   62 am
 106   51   52 1
 107   51  121 1
 108   52   53 1
 109   52  122 1
 110   53   54 1
 111   53  123 1
 112   53  124 1
 113   54   55 1
 114   54  125 1
 115   54  126 1
 116   55   56 1
 117   55  127 1
 118   55  128 1
 119   56   57 1
 120   56  129 1
 121   57   58 2
 122   57   59 1
 123   58  130 1
 124   59  131 1
 125   59  132 1
 126   60   61 2
 127   60   63 1
 128   60   67 1
 129   62   63 1
 130   62  133 1
 131   63   64 1
 132   63  134 1
 133   64   65 1
 134   64   66 1
 135   64  135 1
 136   65  136 1
 137   65  137 1
 138   65  138 1
 139   66  139 1
 140   67  140 1

#	End of record

