#	Name: ASD01916205
#	Creating user name:	WinNT
#	Creation time:	15. 06. 2019 20:06

#	Modifying user name:	WinNT
#	Modification time:	15. 06. 2019 20:06

#	Program:	/corina/corina34_cracker 3.40 0067  02.08.2006

@<TRIPOS>MOLECULE
ASD01916205
  37   39    0    0    0
SMALL
NO_CHARGES


@<TRIPOS>ATOM
   1 C1            -0.4100     1.7398     0.1050 C.ar    
   2 C2            -0.5425     0.3896     0.3737 C.ar    
   3 N3             0.5008    -0.3403     0.7070 N.ar    
   4 C4             1.7187     0.1814     0.7999 C.ar    
   5 C5             1.9318     1.5323     0.5446 C.ar    
   6 C6             0.8479     2.3310     0.1896 C.ar    
   7 C7            -1.9015    -0.2554     0.2840 C.3     
   8 O8             1.0134     3.6534    -0.0680 O.3     
   9 C9             2.2651     4.1721     0.0375 C.ar    
  10 C10            3.1954     3.9759    -0.9735 C.ar    
  11 N11            4.4106     4.4770    -0.8771 N.ar    
  12 C12            4.7918     5.1787     0.1723 C.ar    
  13 C13            3.9206     5.4173     1.2216 C.ar    
  14 C14            2.6297     4.9118     1.1573 C.ar    
  15 C15            2.8604    -0.6829     1.1793 C.2     
  16 N16            2.6607    -1.9923     1.4283 N.am    
  17 O17            3.9769    -0.2113     1.2659 O.2     
  18 C18            3.7471    -2.8267     1.6818 C.ar    
  19 C19            3.5463    -4.1948     1.8225 C.ar    
  20 C20            4.6340    -5.0133     2.0742 C.ar    
  21 C21            5.8899    -4.4327     2.1769 C.ar    
  22 C22            6.0172    -3.0640     2.0259 C.ar    
  23 N23            4.9621    -2.3097     1.7811 N.ar    
  24 F24            4.3207     6.1371     2.2926 F       
  25 Cl25           7.5850    -2.3296     2.1535 Cl      
  26 H26           -1.2721     2.3284    -0.1719 H       
  27 H27            2.9227     1.9550     0.6210 H       
  28 H28           -2.0624    -0.6245    -0.7289 H       
  29 H29           -1.9562    -1.0868     0.9867 H       
  30 H30           -2.6690     0.4788     0.5294 H       
  31 H31            2.9207     3.4061    -1.8488 H       
  32 H32            5.7967     5.5722     0.2139 H       
  33 H33            1.9268     5.0856     1.9587 H       
  34 H34            1.7606    -2.3538     1.4311 H       
  35 H35            2.5546    -4.6138     1.7369 H       
  36 H36            4.5078    -6.0798     2.1884 H       
  37 H37            6.7589    -5.0433     2.3730 H       
@<TRIPOS>BOND
   1    1    2 ar
   2    1    6 ar
   3    1   26 1
   4    2    3 ar
   5    2    7 1
   6    3    4 ar
   7    4    5 ar
   8    4   15 1
   9    5    6 ar
  10    5   27 1
  11    6    8 1
  12    7   28 1
  13    7   29 1
  14    7   30 1
  15    8    9 1
  16    9   10 ar
  17    9   14 ar
  18   10   11 ar
  19   10   31 1
  20   11   12 ar
  21   12   13 ar
  22   12   32 1
  23   13   24 1
  24   13   14 ar
  25   14   33 1
  26   15   16 am
  27   15   17 2
  28   16   18 1
  29   16   34 1
  30   18   19 ar
  31   18   23 ar
  32   19   20 ar
  33   19   35 1
  34   20   21 ar
  35   20   36 1
  36   21   22 ar
  37   21   37 1
  38   22   23 ar
  39   22   25 1

#	End of record

