#	Name: ASD01881372
#	Creating user name:	WinNT
#	Creation time:	15. 06. 2019 19:42

#	Modifying user name:	WinNT
#	Modification time:	15. 06. 2019 19:42

#	Program:	/corina/corina34_cracker 3.40 0067  02.08.2006

@<TRIPOS>MOLECULE
ASD01881372
  56   59    0    0    0
SMALL
NO_CHARGES


@<TRIPOS>ATOM
   1 C1            -0.0064     1.3828     0.0251 C.3     
   2 O2             0.0121    -0.0472    -0.0340 O.3     
   3 C3             1.4473     1.8734     0.0188 C.3     
   4 N4             2.0674     1.4824    -1.2524 N.3     
   5 C5             1.8766     0.1298    -1.5370 C.ar    
   6 C6             0.8621    -0.6109    -0.9364 C.ar    
   7 C7             3.4951     1.8278    -1.2698 C.3     
   8 C8             3.6585     3.3276    -1.0172 C.3     
   9 C9             4.2230     1.0364    -0.1819 C.3     
  10 C10            5.7255     1.3266    -0.2604 C.3     
  11 C11            5.9308     2.8234    -0.1852 C.2     
  12 C12            5.1397     3.7039    -1.1271 C.3     
  13 C13            2.7324    -0.4833    -2.4499 C.ar    
  14 C14            2.5790    -1.8155    -2.7635 C.ar    
  15 C15            1.5614    -2.5597    -2.1660 C.ar    
  16 C16            0.7033    -1.9493    -1.2508 C.ar    
  17 C17            1.3924    -3.9913    -2.5022 C.2     
  18 C18            2.3747    -4.9146    -2.1719 C.2     
  19 C19            0.2249    -4.4425    -3.1600 C.2     
  20 C20            0.0874    -5.7513    -3.4589 C.2     
  21 N21            1.0571    -6.6483    -3.1369 N.am    
  22 C22            2.1813    -6.2626    -2.5056 C.2     
  23 C23            0.8718    -8.0611    -3.4772 C.3     
  24 C24            1.4394    -8.3282    -4.8727 C.3     
  25 C25            1.2459    -9.8037    -5.2282 C.3     
  26 C26            1.8135   -10.0707    -6.6237 C.3     
  27 Cl27           3.8219    -4.4077    -1.3580 Cl      
  28 O28            3.0373    -7.0879    -2.2274 O.2     
  29 O29            6.7061     3.3031     0.6067 O.2     
  30 H30           -0.5338     1.7809    -0.8418 H       
  31 H31           -0.5014     1.7078     0.9402 H       
  32 H32            1.4676     2.9587     0.1174 H       
  33 H33            1.9908     1.4178     0.8465 H       
  34 H34            3.9168     1.5763    -2.2429 H       
  35 H35            3.0857     3.8855    -1.7580 H       
  36 H36            3.2950     3.5697    -0.0185 H       
  37 H37            3.8461     1.3328     0.7970 H       
  38 H38            4.0503    -0.0295    -0.3307 H       
  39 H39            6.2354     0.8447     0.5738 H       
  40 H40            6.1225     0.9494    -1.2029 H       
  41 H41            5.4825     3.5469    -2.1498 H       
  42 H42            5.2734     4.7495    -0.8497 H       
  43 H43            3.5208     0.0899    -2.9149 H       
  44 H44            3.2461    -2.2839    -3.4721 H       
  45 H45           -0.0856    -2.5223    -0.7865 H       
  46 H46           -0.5543    -3.7421    -3.4220 H       
  47 H47           -0.8063    -6.0912    -3.9611 H       
  48 H48            1.3927    -8.6818    -2.7482 H       
  49 H49           -0.1913    -8.3013    -3.4653 H       
  50 H50            0.9185    -7.7075    -5.6018 H       
  51 H51            2.5025    -8.0880    -4.8846 H       
  52 H52            1.7668   -10.4244    -4.4992 H       
  53 H53            0.1828   -10.0439    -5.2163 H       
  54 H54            1.6757   -11.1219    -6.8770 H       
  55 H55            1.2926    -9.4500    -7.3527 H       
  56 H56            2.8766    -9.8305    -6.6356 H       
@<TRIPOS>BOND
   1    1    2 1
   2    1    3 1
   3    1   30 1
   4    1   31 1
   5    2    6 1
   6    3    4 1
   7    3   32 1
   8    3   33 1
   9    4    5 1
  10    4    7 1
  11    5    6 ar
  12    5   13 ar
  13    6   16 ar
  14    7    8 1
  15    7    9 1
  16    7   34 1
  17    8   12 1
  18    8   35 1
  19    8   36 1
  20    9   10 1
  21    9   37 1
  22    9   38 1
  23   10   11 1
  24   10   39 1
  25   10   40 1
  26   11   12 1
  27   11   29 2
  28   12   41 1
  29   12   42 1
  30   13   14 ar
  31   13   43 1
  32   14   15 ar
  33   14   44 1
  34   15   16 ar
  35   15   17 1
  36   16   45 1
  37   17   18 2
  38   17   19 1
  39   18   27 1
  40   18   22 1
  41   19   20 2
  42   19   46 1
  43   20   21 1
  44   20   47 1
  45   21   22 am
  46   21   23 1
  47   22   28 2
  48   23   24 1
  49   23   48 1
  50   23   49 1
  51   24   25 1
  52   24   50 1
  53   24   51 1
  54   25   26 1
  55   25   52 1
  56   25   53 1
  57   26   54 1
  58   26   55 1
  59   26   56 1

#	End of record

