#	Name: ASD01811767
#	Creating user name:	WinNT
#	Creation time:	15. 06. 2019 19:27

#	Modifying user name:	WinNT
#	Modification time:	15. 06. 2019 19:27

#	Program:	/corina/corina34_cracker 3.40 0067  02.08.2006

@<TRIPOS>MOLECULE
ASD01811767
  63   67    0    0    0
SMALL
NO_CHARGES


@<TRIPOS>ATOM
   1 C1            -0.0167     1.3805     0.0096 C.ar    
   2 C2             0.0021    -0.0041     0.0020 C.ar    
   3 C3            -1.1845    -0.7161     0.0090 C.ar    
   4 C4            -2.3942    -0.0535     0.0241 C.ar    
   5 C5            -2.4213     1.3425     0.0323 C.ar    
   6 C6            -1.2177     2.0512     0.0304 C.ar    
   7 C7             1.2777     2.1522     0.0014 C.3     
   8 C8             1.3184    -0.7376    -0.0144 C.3     
   9 C9            -1.1549    -2.2228    -0.0004 C.3     
  10 C10           -1.0078    -2.7311     1.4107 C.ar    
  11 C11           -2.1294    -2.8896     2.2079 C.ar    
  12 C12           -1.9985    -3.3562     3.5029 C.ar    
  13 C13           -0.7369    -3.6663     4.0038 C.ar    
  14 C14            0.3873    -3.5047     3.1967 C.ar    
  15 C15            0.2461    -3.0433     1.9036 C.ar    
  16 F16           -3.3524    -2.5875     1.7198 F       
  17 C17           -0.5899    -4.1673     5.3938 C.2     
  18 C18            0.1278    -5.3109     5.7948 C.2     
  19 N19            0.0238    -5.4210     7.0927 N.2     
  20 N20           -0.7578    -4.3610     7.5678 N.pl3   
  21 C21           -1.1206    -3.6002     6.5155 C.2     
  22 C22           -1.1149    -4.1172     8.9676 C.3     
  23 C23            0.8834    -6.2453     4.8853 C.3     
  24 C24           -3.5309     2.3149     0.0477 C.2     
  25 N25           -3.0504     3.5703     0.0501 N.am    
  26 C26           -1.5841     3.5142     0.0402 C.3     
  27 O27           -4.7107     2.0226     0.0563 O.2     
  28 C28           -3.8575     4.7928     0.0640 C.3     
  29 C29           -4.7392     4.8280     1.3246 C.3     
  30 C30           -6.2027     4.8624     0.8379 C.3     
  31 C31           -6.1454     4.2461    -0.5819 C.3     
  32 C32           -4.8159     4.8071    -1.1447 C.3     
  33 O33           -4.4506     5.9989     2.0913 O.3     
  34 H34           -3.3180    -0.6130     0.0291 H       
  35 H35            1.5800     2.3437    -1.0282 H       
  36 H36            1.1390     3.0999     0.5217 H       
  37 H37            2.0504     1.5710     0.5048 H       
  38 H38            1.6456    -0.9199     1.0092 H       
  39 H39            1.1977    -1.6891    -0.5323 H       
  40 H40            2.0641    -0.1342    -0.5322 H       
  41 H41           -2.0831    -2.6018    -0.4281 H       
  42 H42           -0.3118    -2.5659    -0.5999 H       
  43 H43           -2.8729    -3.4794     4.1247 H       
  44 H44            1.3677    -3.7441     3.5812 H       
  45 H45            1.1175    -2.9181     1.2780 H       
  46 H46           -1.7273    -2.7075     6.5528 H       
  47 H47           -0.3577    -3.4847     9.4309 H       
  48 H48           -2.0830    -3.6184     9.0140 H       
  49 H49           -1.1698    -5.0672     9.4993 H       
  50 H50            1.9117    -5.8990     4.7817 H       
  51 H51            0.8791    -7.2488     5.3108 H       
  52 H52            0.4058    -6.2639     3.9057 H       
  53 H53           -1.1849     3.9949     0.9333 H       
  54 H54           -1.1966     4.0028    -0.8538 H       
  55 H55           -3.2095     5.6689     0.0371 H       
  56 H56           -4.5666     3.9354     1.9260 H       
  57 H57           -6.8358     4.2605     1.4899 H       
  58 H58           -6.5660     5.8892     0.7938 H       
  59 H59           -6.1141     3.1578    -0.5296 H       
  60 H60           -6.9911     4.5808    -1.1827 H       
  61 H61           -4.9552     5.8249    -1.5091 H       
  62 H62           -4.4370     4.1649    -1.9396 H       
  63 H63           -4.9751     6.0787     2.8999 H       
@<TRIPOS>BOND
   1    1    2 ar
   2    1    7 1
   3    1    6 ar
   4    2    3 ar
   5    2    8 1
   6    3    4 ar
   7    3    9 1
   8    4    5 ar
   9    4   34 1
  10    5    6 ar
  11    5   24 1
  12    6   26 1
  13    7   35 1
  14    7   36 1
  15    7   37 1
  16    8   38 1
  17    8   39 1
  18    8   40 1
  19    9   10 1
  20    9   41 1
  21    9   42 1
  22   10   11 ar
  23   10   15 ar
  24   11   12 ar
  25   11   16 1
  26   12   13 ar
  27   12   43 1
  28   13   14 ar
  29   13   17 1
  30   14   15 ar
  31   14   44 1
  32   15   45 1
  33   17   18 1
  34   17   21 2
  35   18   19 2
  36   18   23 1
  37   19   20 1
  38   20   21 1
  39   20   22 1
  40   21   46 1
  41   22   47 1
  42   22   48 1
  43   22   49 1
  44   23   50 1
  45   23   51 1
  46   23   52 1
  47   24   25 am
  48   24   27 2
  49   25   26 1
  50   25   28 1
  51   26   53 1
  52   26   54 1
  53   28   29 1
  54   28   32 1
  55   28   55 1
  56   29   30 1
  57   29   33 1
  58   29   56 1
  59   30   31 1
  60   30   57 1
  61   30   58 1
  62   31   32 1
  63   31   59 1
  64   31   60 1
  65   32   61 1
  66   32   62 1
  67   33   63 1

#	End of record

