#	Name: ASD03730517
#	Creating user name:	WinNT
#	Creation time:	15. 06. 2019 20:44

#	Modifying user name:	WinNT
#	Modification time:	15. 06. 2019 20:44

#	Program:	/corina/corina34_cracker 3.40 0067  02.08.2006

@<TRIPOS>MOLECULE
ASD03730517
  50   55    0    0    0
SMALL
NO_CHARGES


@<TRIPOS>ATOM
   1 C1            -0.0185     1.5024     0.0143 C.2     
   2 C2             0.0015    -0.0044     0.0108 C.3     
   3 O3             1.0236     2.1228     0.0075 O.2     
   4 N4            -1.1946     2.1607     0.0195 N.am    
   5 O5             6.2426     2.8840     2.1078 O.3     
   6 C6             7.6627     2.8282     2.3387 C.3     
   7 O7             7.8740     1.4999     2.8522 O.3     
   8 C8             6.8636     0.7419     2.3331 C.ar    
   9 C9             5.8603     1.5936     1.8764 C.ar    
  10 C10            6.7169    -0.6281     2.2104 C.ar    
  11 C11            5.5700    -1.1655     1.6339 C.ar    
  12 C12            4.5710    -0.3050     1.1890 C.ar    
  13 C13            4.7170     1.0617     1.3043 C.ar    
  14 O14            5.2378    -2.4684     1.4048 O.3     
  15 C15            3.4654    -1.1732     0.6505 C.3     
  16 C16            3.8163    -2.5658     1.1916 C.3     
  17 N17            1.3891    -0.4743    -0.0012 N.am    
  18 C18            2.1104    -0.7186     1.1110 C.2     
  19 C19            3.4032    -1.1544    -0.8481 C.ar    
  20 C20            4.3063    -1.4600    -1.8417 C.ar    
  21 C21            3.9411    -1.3403    -3.1707 C.ar    
  22 C22            2.6675    -0.9124    -3.4987 C.ar    
  23 C23            1.7597    -0.6041    -2.5071 C.ar    
  24 C24            2.1184    -0.7221    -1.1665 C.ar    
  25 O25            1.7379    -0.5958     2.2587 O.2     
  26 C26           -1.2153     3.5514     0.1324 C.ar    
  27 C27           -2.1862     4.2877    -0.5385 C.ar    
  28 C28           -2.2099     5.6601    -0.4290 C.ar    
  29 C29           -1.2569     6.3133     0.3576 C.ar    
  30 C30           -0.2828     5.5702     1.0303 C.ar    
  31 C31           -0.2684     4.1977     0.9204 C.ar    
  32 C32           -1.2781     7.7404     0.4735 C.1     
  33 N33           -1.2949     8.8726     0.5655 N.1     
  34 H34           -0.5004    -0.3766     0.9039 H       
  35 H35           -0.5144    -0.3726    -0.8760 H       
  36 H36           -2.0266     1.6678    -0.0554 H       
  37 H37            8.2082     2.9694     1.4056 H       
  38 H38            7.9606     3.5752     3.0745 H       
  39 H39            7.4976    -1.2850     2.5643 H       
  40 H40            3.9374     1.7187     0.9478 H       
  41 H41            3.5872    -3.3362     0.4553 H       
  42 H42            3.2964    -2.7588     2.1300 H       
  43 H43            5.3004    -1.7938    -1.5832 H       
  44 H44            4.6488    -1.5807    -3.9503 H       
  45 H45            2.3825    -0.8188    -4.5362 H       
  46 H46            0.7671    -0.2701    -2.7711 H       
  47 H47           -2.9220     3.7823    -1.1464 H       
  48 H48           -2.9638     6.2311    -0.9505 H       
  49 H49            0.4552     6.0716     1.6390 H       
  50 H50            0.4812     3.6225     1.4435 H       
@<TRIPOS>BOND
   1    1    2 1
   2    1    3 2
   3    1    4 am
   4    2   17 1
   5    2   34 1
   6    2   35 1
   7    4   26 1
   8    4   36 1
   9    5    6 1
  10    5    9 1
  11    6    7 1
  12    6   37 1
  13    6   38 1
  14    7    8 1
  15    8    9 ar
  16    8   10 ar
  17    9   13 ar
  18   10   11 ar
  19   10   39 1
  20   11   12 ar
  21   11   14 1
  22   12   13 ar
  23   12   15 1
  24   13   40 1
  25   14   16 1
  26   15   16 1
  27   15   18 1
  28   15   19 1
  29   16   41 1
  30   16   42 1
  31   17   18 am
  32   17   24 1
  33   18   25 2
  34   19   20 ar
  35   19   24 ar
  36   20   21 ar
  37   20   43 1
  38   21   22 ar
  39   21   44 1
  40   22   23 ar
  41   22   45 1
  42   23   24 ar
  43   23   46 1
  44   26   27 ar
  45   26   31 ar
  46   27   28 ar
  47   27   47 1
  48   28   29 ar
  49   28   48 1
  50   29   30 ar
  51   29   32 1
  52   30   31 ar
  53   30   49 1
  54   31   50 1
  55   32   33 3

#	End of record

