#	Name: ASD03330952
#	Creating user name:	WinNT
#	Creation time:	15. 06. 2019 20:38

#	Modifying user name:	WinNT
#	Modification time:	15. 06. 2019 20:38

#	Program:	/corina/corina34_cracker 3.40 0067  02.08.2006

@<TRIPOS>MOLECULE
ASD03330952
  76   80    0    0    0
SMALL
NO_CHARGES


@<TRIPOS>ATOM
   1 N1             0.1977     0.9424     0.0846 N.pl3   
   2 C2             0.0718    -0.3970     0.2812 C.2     
   3 C3             1.1847    -1.3357     0.6678 C.3     
   4 N4             1.9433    -0.7503     1.7842 N.3     
   5 C5             3.0297     0.1021     1.2977 C.3     
   6 C6             2.6340     0.8046     0.0021 C.3     
   7 C7             1.4304     1.7169     0.2537 C.3     
   8 C8            -1.0273     1.4185    -0.2821 C.2     
   9 N9            -1.8785     0.4196    -0.2942 N.2     
  10 C10           -1.2321    -0.7152     0.0517 C.2     
  11 C11           -1.8309    -2.0572     0.1608 C.2     
  12 O12           -1.1418    -3.0063     0.4824 O.2     
  13 N13           -3.1423    -2.2329    -0.0958 N.am    
  14 C14            2.4556    -1.7969     2.6787 C.3     
  15 C15           -4.9595    -3.6449    -0.8660 C.2     
  16 C16           -3.7377    -3.5671     0.0126 C.3     
  17 C17           -4.1369    -3.8308     1.4659 C.3     
  18 C18           -5.2055    -2.8223     1.8923 C.3     
  19 N19           -5.3561    -4.8323    -1.3653 N.am    
  20 N20           -6.6808    -5.7123    -4.4468 N.3     
  21 C21           -6.3353    -4.5674    -3.5937 C.3     
  22 C22           -6.6026    -4.9262    -2.1292 C.3     
  23 C23           -7.1401    -6.3612    -2.0613 C.3     
  24 C24           -6.0989    -7.3033    -2.6789 C.3     
  25 C25           -5.8461    -6.8790    -4.1283 C.3     
  26 C26           -8.4267    -6.4415    -2.8927 C.3     
  27 C27           -8.1086    -6.0414    -4.3361 C.3     
  28 O28           -5.5860    -2.6389    -1.1239 O.2     
  29 C29           -4.6955    -5.2496     1.5918 C.3     
  30 C30           -2.9089    -3.6843     2.3667 C.3     
  31 C31           -1.3434     2.8255    -0.6107 C.ar    
  32 C32           -2.1015     3.1282    -1.7450 C.ar    
  33 C33           -2.3934     4.4453    -2.0455 C.ar    
  34 C34           -1.9368     5.4617    -1.2265 C.ar    
  35 C35           -1.1848     5.1679    -0.1016 C.ar    
  36 C36           -0.8909     3.8559     0.2134 C.ar    
  37 F37           -2.5476     2.1358    -2.5459 F       
  38 Cl38          -0.6157     6.4518     0.9190 Cl      
  39 H39            0.7636    -2.2928     0.9757 H       
  40 H40            1.8476    -1.4855    -0.1843 H       
  41 H41            3.2634     0.8512     2.0543 H       
  42 H42            3.9127    -0.5110     1.1174 H       
  43 H43            3.4723     1.4015    -0.3572 H       
  44 H44            2.3729     0.0592    -0.7491 H       
  45 H45            1.4432     2.5418    -0.4587 H       
  46 H46            1.4773     2.1102     1.2692 H       
  47 H47           -3.6920    -1.4759    -0.3523 H       
  48 H48            3.0570    -2.5025     2.1054 H       
  49 H49            3.0708    -1.3422     3.4552 H       
  50 H50            1.6193    -2.3228     3.1392 H       
  51 H51           -3.0124    -4.3156    -0.3065 H       
  52 H52           -6.0803    -2.9267     1.2505 H       
  53 H53           -5.4899    -3.0102     2.9276 H       
  54 H54           -4.8076    -1.8115     1.8025 H       
  55 H55           -4.8161    -5.6247    -1.2188 H       
  56 H56           -5.2806    -4.3237    -3.7217 H       
  57 H57           -6.9440    -3.7079    -3.8745 H       
  58 H58           -7.3404    -4.2398    -1.7137 H       
  59 H59           -7.3313    -6.6413    -1.0254 H       
  60 H60           -5.1694    -7.2417    -2.1129 H       
  61 H61           -6.4742    -8.3264    -2.6581 H       
  62 H62           -6.0996    -7.7012    -4.7975 H       
  63 H63           -4.7949    -6.6190    -4.2531 H       
  64 H64           -8.8113    -7.4612    -2.8727 H       
  65 H65           -9.1710    -5.7603    -2.4804 H       
  66 H66           -8.7048    -5.1716    -4.6121 H       
  67 H67           -8.3436    -6.8705    -5.0036 H       
  68 H68           -3.9140    -5.9704     1.3512 H       
  69 H69           -5.0405    -5.4150     2.6125 H       
  70 H70           -5.5298    -5.3743     0.9016 H       
  71 H71           -2.5110    -2.6735     2.2770 H       
  72 H72           -3.1934    -3.8722     3.4021 H       
  73 H73           -2.1476    -4.4028     2.0630 H       
  74 H74           -2.9788     4.6812    -2.9219 H       
  75 H75           -2.1674     6.4894    -1.4656 H       
  76 H76           -0.3084     3.6284     1.0939 H       
@<TRIPOS>BOND
   1    1    2 1
   2    1    7 1
   3    1    8 1
   4    2    3 1
   5    2   10 2
   6    3    4 1
   7    3   39 1
   8    3   40 1
   9    4    5 1
  10    4   14 1
  11    5    6 1
  12    5   41 1
  13    5   42 1
  14    6    7 1
  15    6   43 1
  16    6   44 1
  17    7   45 1
  18    7   46 1
  19    8    9 2
  20    8   31 1
  21    9   10 1
  22   10   11 1
  23   11   12 2
  24   11   13 am
  25   13   16 1
  26   13   47 1
  27   14   48 1
  28   14   49 1
  29   14   50 1
  30   15   19 am
  31   15   28 2
  32   15   16 1
  33   16   17 1
  34   16   51 1
  35   17   18 1
  36   17   29 1
  37   17   30 1
  38   18   52 1
  39   18   53 1
  40   18   54 1
  41   19   22 1
  42   19   55 1
  43   20   21 1
  44   20   25 1
  45   20   27 1
  46   21   22 1
  47   21   56 1
  48   21   57 1
  49   22   23 1
  50   22   58 1
  51   23   24 1
  52   23   26 1
  53   23   59 1
  54   24   25 1
  55   24   60 1
  56   24   61 1
  57   25   62 1
  58   25   63 1
  59   26   27 1
  60   26   64 1
  61   26   65 1
  62   27   66 1
  63   27   67 1
  64   29   68 1
  65   29   69 1
  66   29   70 1
  67   30   71 1
  68   30   72 1
  69   30   73 1
  70   31   32 ar
  71   31   36 ar
  72   32   33 ar
  73   32   37 1
  74   33   34 ar
  75   33   74 1
  76   34   35 ar
  77   34   75 1
  78   35   36 ar
  79   35   38 1
  80   36   76 1

#	End of record

