#	Name: ASD07930042
#	Creating user name:	WinNT
#	Creation time:	15. 06. 2019 21:11

#	Modifying user name:	WinNT
#	Modification time:	15. 06. 2019 21:11

#	Program:	/corina/corina34_cracker 3.40 0067  02.08.2006

@<TRIPOS>MOLECULE
ASD07930042
  52   55    0    0    0
SMALL
NO_CHARGES


@<TRIPOS>ATOM
   1 C1            -0.0167     1.3807     0.0096 C.2     
   2 N2             0.0021    -0.0041     0.0020 N.am    
   3 N3             1.2023     2.0320     0.0015 N.pl3   
   4 C4             2.2545     1.5040    -0.8785 C.3     
   5 C5             2.4301    -0.0046    -0.6026 C.3     
   6 C6             1.1260    -0.6674    -0.3006 C.2     
   7 C7             3.6038     2.1081    -0.4355 C.3     
   8 N8             4.2432     1.1401     0.4737 N.3     
   9 C9             3.3350    -0.0129     0.6493 C.3     
  10 C10            4.5423     1.7266     1.6925 C.ar    
  11 N11            5.1230     0.9985     2.6336 N.ar    
  12 C12            5.4244     1.5246     3.8121 C.ar    
  13 C13            5.1254     2.8530     4.0554 C.ar    
  14 C14            4.5132     3.5936     3.0428 C.ar    
  15 N15            4.2449     3.0032     1.8849 N.ar    
  16 F16            5.4186     3.4205     5.2459 F       
  17 C17            6.0848     0.6849     4.8750 C.3     
  18 C18            1.9625     1.7955    -2.3280 C.ar    
  19 C19            0.5392     2.7381    -4.0069 C.ar    
  20 C20            1.4258     2.3307    -4.9892 C.ar    
  21 C21            2.5852     1.6599    -4.6394 C.ar    
  22 N22           -1.1378     2.0425     0.0186 N.2     
  23 C23           -1.2164    -0.7493     0.3279 C.3     
  24 O24            1.0819    -1.8787    -0.3312 O.2     
  25 C25            0.8085     2.4704    -2.6778 C.ar    
  26 C26            2.8537     1.3920    -3.3084 C.ar    
  27 O27            4.2023     4.8986     3.2374 O.3     
  28 F28            3.9847     0.7375    -2.9655 F       
  29 C29            3.5776     5.5856     2.1513 C.3     
  30 F30            5.2669     0.6403     6.0091 F       
  31 C31            6.2986    -0.7341     4.3443 C.3     
  32 F32            7.3203     1.2475     5.2129 F       
  33 F33            1.1621     2.5921    -6.2882 F       
  34 H34            1.3581     2.8114     0.5575 H       
  35 H35            2.9183    -0.4925    -1.4462 H       
  36 H36            4.2388     2.2739    -1.3058 H       
  37 H37            3.4343     3.0500     0.0861 H       
  38 H38            2.7352     0.1114     1.5509 H       
  39 H39            3.9056    -0.9403     0.6980 H       
  40 H40           -0.3654     3.2614    -4.2796 H       
  41 H41            3.2774     1.3417    -5.4049 H       
  42 H42           -1.9825     1.5657     0.0200 H       
  43 H43           -2.0230    -0.0493     0.5458 H       
  44 H44           -1.4972    -1.3749    -0.5194 H       
  45 H45           -1.0355    -1.3781     1.1996 H       
  46 H46            0.1164     2.7886    -1.9123 H       
  47 H47            2.6367     5.0942     1.9036 H       
  48 H48            3.3831     6.6189     2.4387 H       
  49 H49            4.2363     5.5678     1.2830 H       
  50 H50            6.9359    -0.6994     3.4607 H       
  51 H51            6.7763    -1.3414     5.1131 H       
  52 H52            5.3360    -1.1724     4.0810 H       
@<TRIPOS>BOND
   1    1    2 1
   2    1    3 1
   3    1   22 2
   4    2   23 1
   5    2    6 am
   6    3    4 1
   7    3   34 1
   8    4    7 1
   9    4   18 1
  10    4    5 1
  11    5    6 1
  12    5    9 1
  13    5   35 1
  14    6   24 2
  15    7    8 1
  16    7   36 1
  17    7   37 1
  18    8    9 1
  19    8   10 1
  20    9   38 1
  21    9   39 1
  22   10   11 ar
  23   10   15 ar
  24   11   12 ar
  25   12   13 ar
  26   12   17 1
  27   13   14 ar
  28   13   16 1
  29   14   15 ar
  30   14   27 1
  31   17   30 1
  32   17   31 1
  33   17   32 1
  34   18   25 ar
  35   18   26 ar
  36   19   20 ar
  37   19   25 ar
  38   19   40 1
  39   20   21 ar
  40   20   33 1
  41   21   26 ar
  42   21   41 1
  43   22   42 1
  44   23   43 1
  45   23   44 1
  46   23   45 1
  47   25   46 1
  48   26   28 1
  49   27   29 1
  50   29   47 1
  51   29   48 1
  52   29   49 1
  53   31   50 1
  54   31   51 1
  55   31   52 1

#	End of record

