#	Name: ASD08170277
#	Creating user name:	WinNT
#	Creation time:	15. 06. 2019 21:17

#	Modifying user name:	WinNT
#	Modification time:	15. 06. 2019 21:17

#	Program:	/corina/corina34_cracker 3.40 0067  02.08.2006

@<TRIPOS>MOLECULE
ASD08170277
  53   54    0    0    0
SMALL
NO_CHARGES


@<TRIPOS>ATOM
   1 C1            -0.0162     1.3436     0.0094 C.2     
   2 N2             0.0021    -0.0041     0.0020 N.am    
   3 C3             1.2158    -0.6830    -0.0132 C.2     
   4 S4             1.4076    -2.3853    -0.0242 S.3     
   5 C5             3.1580    -2.1679    -0.0404 C.2     
   6 C6             4.1900    -3.2660    -0.0570 C.3     
   7 C7             7.1356    -6.3838     3.2786 C.3     
   8 C8             7.3823    -6.6392     4.7431 C.2     
   9 S9             8.5907    -5.8400     5.7495 S.3     
  10 C10            8.0678    -6.7751     7.0862 C.2     
  11 N11            2.3916    -0.1314    -0.0272 N.2     
  12 N12            3.3971    -0.8949    -0.0360 N.2     
  13 N13            6.7415    -7.4810     5.4904 N.2     
  14 N14            7.1020    -7.5523     6.6983 N.2     
  15 O15            1.0258     1.9642     0.0028 O.2     
  16 C16           -1.3314     2.0792     0.0197 C.3     
  17 C17            4.5536    -3.6458     1.3798 C.3     
  18 C18            6.0928    -5.2751     3.1228 C.3     
  19 S19            5.7958    -4.9677     1.3599 S.3     
  20 N20            8.5909    -6.7128     8.3733 N.am    
  21 C21            8.0910    -7.5042     9.3429 C.2     
  22 C22            8.6578    -7.4367    10.7376 C.3     
  23 O23            7.1849    -8.2707     9.0931 O.2     
  24 C24            7.6005    -7.9019    11.7409 C.3     
  25 C25            9.8860    -8.3440    10.8334 C.3     
  26 O26            9.0357    -6.0907    11.0336 O.3     
  27 F27            7.2306    -9.2196    11.4512 F       
  28 F28            8.1268    -7.8392    13.0357 F       
  29 F29            6.4775    -7.0723    11.6533 F       
  30 O30           -2.2822     1.3444     0.7930 O.3     
  31 C31           -1.1353     3.4658     0.6359 C.3     
  32 C32           -1.8447     2.2263    -1.4141 C.3     
  33 F33           -0.2045     4.1852    -0.1212 F       
  34 F34           -2.3563     4.1488     0.6454 F       
  35 F35           -0.6660     3.3314     1.9470 F       
  36 H36           -0.8313    -0.5005     0.0073 H       
  37 H37            3.7851    -4.1373    -0.5717 H       
  38 H38            5.0822    -2.9183    -0.5777 H       
  39 H39            8.0663    -6.0769     2.8014 H       
  40 H40            6.7692    -7.2959     2.8074 H       
  41 H41            4.9585    -2.7745     1.8946 H       
  42 H42            3.6614    -3.9935     1.9006 H       
  43 H43            5.1621    -5.5820     3.6000 H       
  44 H44            6.4592    -4.3630     3.5940 H       
  45 H45            9.3156    -6.0998     8.5731 H       
  46 H46           10.6392    -8.0126    10.1187 H       
  47 H47           10.2960    -8.2952    11.8422 H       
  48 H48            9.5978    -9.3707    10.6077 H       
  49 H49            8.3049    -5.4588    10.9917 H       
  50 H50           -2.0218     1.2127     1.7149 H       
  51 H51           -1.9843     1.2384    -1.8532 H       
  52 H52           -2.7959     2.7584    -1.4067 H       
  53 H53           -1.1194     2.7868    -2.0040 H       
@<TRIPOS>BOND
   1    1    2 am
   2    1   15 2
   3    1   16 1
   4    2    3 1
   5    2   36 1
   6    3    4 1
   7    3   11 2
   8    4    5 1
   9    5    6 1
  10    5   12 2
  11    6   17 1
  12    6   37 1
  13    6   38 1
  14    7    8 1
  15    7   18 1
  16    7   39 1
  17    7   40 1
  18    8    9 1
  19    8   13 2
  20    9   10 1
  21   10   20 1
  22   10   14 2
  23   11   12 1
  24   13   14 1
  25   16   30 1
  26   16   31 1
  27   16   32 1
  28   17   19 1
  29   17   41 1
  30   17   42 1
  31   18   19 1
  32   18   43 1
  33   18   44 1
  34   20   21 am
  35   20   45 1
  36   21   22 1
  37   21   23 2
  38   22   24 1
  39   22   25 1
  40   22   26 1
  41   24   27 1
  42   24   28 1
  43   24   29 1
  44   25   46 1
  45   25   47 1
  46   25   48 1
  47   26   49 1
  48   30   50 1
  49   31   33 1
  50   31   34 1
  51   31   35 1
  52   32   51 1
  53   32   52 1
  54   32   53 1

#	End of record

