#	Name: ASD01350019
#	Creating user name:	WinNT
#	Creation time:	15. 06. 2019 19:16

#	Modifying user name:	WinNT
#	Modification time:	15. 06. 2019 19:16

#	Program:	/corina/corina34_cracker 3.40 0067  02.08.2006

@<TRIPOS>MOLECULE
ASD01350019
  53   56    0    0    0
SMALL
NO_CHARGES


@<TRIPOS>ATOM
   1 C1            -0.0184     1.5028     0.0103 C.ar    
   2 C2             0.0021    -0.0041     0.0020 C.3     
   3 C3             0.0228    -0.5218     1.4416 C.3     
   4 N4             0.0427    -1.9906     1.4335 N.3     
   5 C5             0.0629    -2.5244     2.8020 C.3     
   6 C6            -1.3680    -2.6121     3.3364 C.3     
   7 C7             0.6916    -3.9192     2.7961 C.3     
   8 C8             2.1383    -3.8165     2.3868 C.ar    
   9 C9             3.1164    -3.6324     3.3458 C.ar    
  10 C10            4.4436    -3.5381     2.9703 C.ar    
  11 C11            4.7924    -3.6284     1.6360 C.ar    
  12 C12            3.8141    -3.8134     0.6768 C.ar    
  13 C13            2.4877    -3.9121     1.0525 C.ar    
  14 C14            1.1681     2.2404     0.0029 C.ar    
  15 C15            1.1107     3.7054     0.0114 C.ar    
  16 N16           -0.0568     4.3391     0.0260 N.ar    
  17 C17           -1.2067     3.6739     0.0334 C.ar    
  18 C18           -1.2244     2.2079     0.0197 C.ar    
  19 C19           -2.4403     4.3598     0.0484 C.ar    
  20 C20           -3.6008     3.6552     0.0552 C.ar    
  21 C21           -3.6148     2.2604     0.0483 C.ar    
  22 C22           -2.4647     1.5380     0.0277 C.ar    
  23 C23            2.4260     1.6045    -0.0130 C.ar    
  24 C24            3.5562     2.3580    -0.0202 C.ar    
  25 C25            3.5044     3.7519    -0.0122 C.ar    
  26 C26            2.3253     4.4246     0.0032 C.ar    
  27 C27            4.1943    -3.9114    -0.7782 C.3     
  28 F28            5.5819    -3.7874    -0.9069 F       
  29 F29            3.7880    -5.1509    -1.2839 F       
  30 F30            3.5661    -2.8869    -1.4944 F       
  31 H31           -0.8878    -0.3767    -0.5053 H       
  32 H32            0.8920    -0.3525    -0.5222 H       
  33 H33            0.9126    -0.1491     1.9490 H       
  34 H34           -0.8671    -0.1733     1.9659 H       
  35 H35           -0.7387    -2.3600     0.9129 H       
  36 H36            0.6495    -1.8641     3.4409 H       
  37 H37           -1.3530    -3.0081     4.3518 H       
  38 H38           -1.8159    -1.6184     3.3406 H       
  39 H39           -1.9546    -3.2723     2.6975 H       
  40 H40            0.6263    -4.3514     3.7947 H       
  41 H41            0.1583    -4.5551     2.0894 H       
  42 H42            2.8438    -3.5618     4.3885 H       
  43 H43            5.2078    -3.3935     3.7197 H       
  44 H44            5.8291    -3.5540     1.3426 H       
  45 H45            1.7234    -4.0566     0.3032 H       
  46 H46           -2.4609     5.4396     0.0548 H       
  47 H47           -4.5393     4.1895     0.0667 H       
  48 H48           -4.5625     1.7427     0.0549 H       
  49 H49           -2.5002     0.4586     0.0227 H       
  50 H50            2.4907     0.5264    -0.0191 H       
  51 H51            4.5176     1.8662    -0.0320 H       
  52 H52            4.4280     4.3115    -0.0183 H       
  53 H53            2.3166     5.5046     0.0095 H       
@<TRIPOS>BOND
   1    1    2 1
   2    1   14 ar
   3    1   18 ar
   4    2    3 1
   5    2   31 1
   6    2   32 1
   7    3    4 1
   8    3   33 1
   9    3   34 1
  10    4    5 1
  11    4   35 1
  12    5    6 1
  13    5    7 1
  14    5   36 1
  15    6   37 1
  16    6   38 1
  17    6   39 1
  18    7    8 1
  19    7   40 1
  20    7   41 1
  21    8    9 ar
  22    8   13 ar
  23    9   10 ar
  24    9   42 1
  25   10   11 ar
  26   10   43 1
  27   11   12 ar
  28   11   44 1
  29   12   13 ar
  30   12   27 1
  31   13   45 1
  32   14   15 ar
  33   14   23 ar
  34   15   16 ar
  35   15   26 ar
  36   16   17 ar
  37   17   18 ar
  38   17   19 ar
  39   18   22 ar
  40   19   20 ar
  41   19   46 1
  42   20   21 ar
  43   20   47 1
  44   21   22 ar
  45   21   48 1
  46   22   49 1
  47   23   24 ar
  48   23   50 1
  49   24   25 ar
  50   24   51 1
  51   25   26 ar
  52   25   52 1
  53   26   53 1
  54   27   28 1
  55   27   29 1
  56   27   30 1

#	End of record

