#	Name: ASD02500125
#	Creating user name:	WinNT
#	Creation time:	15. 06. 2019 20:22

#	Modifying user name:	WinNT
#	Modification time:	15. 06. 2019 20:22

#	Program:	/corina/corina34_cracker 3.40 0067  02.08.2006

@<TRIPOS>MOLECULE
ASD02500125
  64   68    0    0    0
SMALL
NO_CHARGES


@<TRIPOS>ATOM
   1 N1             1.2765     3.5311     0.7346 N.ar    
   2 C2             2.2376     3.1953     1.5603 C.ar    
   3 C3             3.4313     2.6370     1.1078 C.ar    
   4 C4             3.6221     2.4266    -0.2281 C.ar    
   5 C5             2.5876     2.7881    -1.1119 C.ar    
   6 C6             2.7117     2.6022    -2.4978 C.ar    
   7 C7             1.6884     2.9652    -3.3197 C.ar    
   8 C8             0.5191     3.5195    -2.8035 C.ar    
   9 C9             0.3653     3.7137    -1.4652 C.ar    
  10 C10            1.3992     3.3517    -0.5845 C.ar    
  11 S11           -1.1239     4.4173    -0.8391 S.o2    
  12 O12           -0.7345     5.4447     0.0620 O.2     
  13 O13           -1.9630     4.6461    -1.9629 O.2     
  14 N14           -1.8703     3.2538     0.0727 N.am    
  15 C15           -2.3311     2.0882    -0.5293 C.ar    
  16 C16           -2.0609     0.8524     0.0523 C.ar    
  17 C17           -2.5155    -0.3030    -0.5410 C.ar    
  18 C18           -3.2493    -0.2350    -1.7290 C.ar    
  19 C19           -3.5188     1.0074    -2.3105 C.ar    
  20 C20           -3.0664     2.1595    -1.7093 C.ar    
  21 C21           -3.7376    -1.4717    -2.3679 C.2     
  22 O22           -4.8664    -1.5189    -2.8175 O.2     
  23 N23           -2.9327    -2.5493    -2.4532 N.am    
  24 C24           -3.3714    -3.7559    -3.1684 C.3     
  25 C25           -2.3291    -4.0962    -4.2408 C.3     
  26 N26           -0.9967    -4.0855    -3.6207 N.am    
  27 C27           -0.5580    -2.8789    -2.9055 C.3     
  28 C28           -1.5981    -2.5366    -1.8379 C.3     
  29 C29           -0.1917    -5.1631    -3.7060 C.2     
  30 C30            1.1841    -5.1027    -3.1679 C.ar    
  31 C31            1.7506    -6.2268    -2.5662 C.ar    
  32 C32            3.0394    -6.1627    -2.0645 C.ar    
  33 C33            3.7645    -4.9824    -2.1602 C.ar    
  34 C34            3.2043    -3.8676    -2.7557 C.ar    
  35 C35            1.9229    -3.9225    -3.2650 C.ar    
  36 O36           -0.5968    -6.1847    -4.2254 O.2     
  37 O37            3.5950    -7.2555    -1.4776 O.3     
  38 C38            4.9283    -7.1183    -0.9820 C.3     
  39 H39            2.1007     3.3559     2.6195 H       
  40 H40            4.2051     2.3711     1.8127 H       
  41 H41            4.5412     1.9952    -0.5963 H       
  42 H42            3.6135     2.1741    -2.9099 H       
  43 H43            1.7847     2.8219    -4.3858 H       
  44 H44           -0.2779     3.7999    -3.4761 H       
  45 H45           -1.9862     3.3855     1.0267 H       
  46 H46           -1.4937     0.8006     0.9699 H       
  47 H47           -2.3053    -1.2613    -0.0896 H       
  48 H48           -4.0851     1.0631    -3.2284 H       
  49 H49           -3.2784     3.1199    -2.1555 H       
  50 H50           -3.4588    -4.5856    -2.4669 H       
  51 H51           -4.3358    -3.5704    -3.6414 H       
  52 H52           -2.5344    -5.0855    -4.6496 H       
  53 H53           -2.3678    -3.3532    -5.0374 H       
  54 H54            0.4064    -3.0644    -2.4325 H       
  55 H55           -0.4706    -2.0493    -3.6070 H       
  56 H56           -1.3916    -1.5461    -1.4325 H       
  57 H57           -1.5563    -3.2775    -1.0395 H       
  58 H58            1.1853    -7.1441    -2.4917 H       
  59 H59            4.7695    -4.9350    -1.7677 H       
  60 H60            3.7731    -2.9523    -2.8268 H       
  61 H61            1.4900    -3.0512    -3.7340 H       
  62 H62            5.2502    -8.0611    -0.5396 H       
  63 H63            5.5957    -6.8555    -1.8027 H       
  64 H64            4.9559    -6.3339    -0.2257 H       
@<TRIPOS>BOND
   1    1    2 ar
   2    1   10 ar
   3    2    3 ar
   4    2   39 1
   5    3    4 ar
   6    3   40 1
   7    4    5 ar
   8    4   41 1
   9    5    6 ar
  10    5   10 ar
  11    6    7 ar
  12    6   42 1
  13    7    8 ar
  14    7   43 1
  15    8    9 ar
  16    8   44 1
  17    9   10 ar
  18    9   11 1
  19   11   12 2
  20   11   13 2
  21   11   14 am
  22   14   15 1
  23   14   45 1
  24   15   16 ar
  25   15   20 ar
  26   16   17 ar
  27   16   46 1
  28   17   18 ar
  29   17   47 1
  30   18   19 ar
  31   18   21 1
  32   19   20 ar
  33   19   48 1
  34   20   49 1
  35   21   22 2
  36   21   23 am
  37   23   24 1
  38   23   28 1
  39   24   25 1
  40   24   50 1
  41   24   51 1
  42   25   26 1
  43   25   52 1
  44   25   53 1
  45   26   27 1
  46   26   29 am
  47   27   28 1
  48   27   54 1
  49   27   55 1
  50   28   56 1
  51   28   57 1
  52   29   30 1
  53   29   36 2
  54   30   31 ar
  55   30   35 ar
  56   31   32 ar
  57   31   58 1
  58   32   33 ar
  59   32   37 1
  60   33   34 ar
  61   33   59 1
  62   34   35 ar
  63   34   60 1
  64   35   61 1
  65   37   38 1
  66   38   62 1
  67   38   63 1
  68   38   64 1

#	End of record

