#	Name: ASD01913148
#	Creating user name:	WinNT
#	Creation time:	15. 06. 2019 20:01

#	Modifying user name:	WinNT
#	Modification time:	15. 06. 2019 20:01

#	Program:	/corina/corina34_cracker 3.40 0067  02.08.2006

@<TRIPOS>MOLECULE
ASD01913148
  45   47    0    0    0
SMALL
NO_CHARGES


@<TRIPOS>ATOM
   1 C1            -0.0711     1.1595    -0.0468 C.ar    
   2 C2            -0.0215    -0.2217    -0.0863 C.ar    
   3 C3             1.1983    -0.8700    -0.1030 C.ar    
   4 C4             2.3741    -0.1340    -0.0801 C.ar    
   5 C5             2.3216     1.2517    -0.0404 C.ar    
   6 C6             1.0994     1.8953    -0.0238 C.ar    
   7 O7             3.5752    -0.7695    -0.0960 O.3     
   8 C8             4.7442     0.0520    -0.0707 C.3     
   9 C9             5.9911    -0.8344    -0.0936 C.3     
  10 C10            7.2239     0.0320    -0.0669 C.2     
  11 N11            8.4465    -0.5350    -0.0808 N.am    
  12 C12            9.6625     0.2919    -0.0552 C.3     
  13 C13           10.5753    -0.2193     1.0644 C.3     
  14 N14           10.8067    -1.6587     0.8844 N.3     
  15 C15            9.5547    -2.4183     1.0002 C.3     
  16 C16            8.6000    -1.9974    -0.1159 C.3     
  17 O17            7.1158     1.2395    -0.0328 O.2     
  18 C18           11.7632    -2.1291     1.7882 C.ar    
  19 C19           11.3958    -3.0161     2.7913 C.ar    
  20 C20           12.3434    -3.4801     3.6833 C.ar    
  21 C21           13.6570    -3.0626     3.5788 C.ar    
  22 C22           14.0281    -2.1780     2.5808 C.ar    
  23 C23           13.0856    -1.7144     1.6814 C.ar    
  24 Cl24          13.5506    -0.6055     0.4292 Cl      
  25 Cl25          15.6788    -1.6557     2.4542 Cl      
  26 H26           -1.0256     1.6647    -0.0383 H       
  27 H27           -0.9371    -0.7942    -0.1038 H       
  28 H28            1.2365    -1.9489    -0.1336 H       
  29 H29            3.2356     1.8269    -0.0221 H       
  30 H30            1.0580     2.9741     0.0071 H       
  31 H31            4.7474     0.7063    -0.9424 H       
  32 H32            4.7443     0.6558     0.8368 H       
  33 H33            5.9879    -1.4887     0.7781 H       
  34 H34            5.9910    -1.4382    -1.0011 H       
  35 H35           10.1783     0.2143    -1.0123 H       
  36 H36            9.3947     1.3310     0.1364 H       
  37 H37           11.5277     0.3097     1.0273 H       
  38 H38           10.0995    -0.0453     2.0295 H       
  39 H39            9.7668    -3.4842     0.9165 H       
  40 H40            9.0931    -2.2136     1.9662 H       
  41 H41            7.6304    -2.4726     0.0329 H       
  42 H42            9.0117    -2.2933    -1.0809 H       
  43 H43           10.3698    -3.3429     2.8743 H       
  44 H44           12.0572    -4.1698     4.4636 H       
  45 H45           14.3954    -3.4271     4.2777 H       
@<TRIPOS>BOND
   1    1    2 ar
   2    1    6 ar
   3    1   26 1
   4    2    3 ar
   5    2   27 1
   6    3    4 ar
   7    3   28 1
   8    4    5 ar
   9    4    7 1
  10    5    6 ar
  11    5   29 1
  12    6   30 1
  13    7    8 1
  14    8    9 1
  15    8   31 1
  16    8   32 1
  17    9   10 1
  18    9   33 1
  19    9   34 1
  20   10   11 am
  21   10   17 2
  22   11   12 1
  23   11   16 1
  24   12   13 1
  25   12   35 1
  26   12   36 1
  27   13   14 1
  28   13   37 1
  29   13   38 1
  30   14   15 1
  31   14   18 1
  32   15   16 1
  33   15   39 1
  34   15   40 1
  35   16   41 1
  36   16   42 1
  37   18   19 ar
  38   18   23 ar
  39   19   20 ar
  40   19   43 1
  41   20   21 ar
  42   20   44 1
  43   21   22 ar
  44   21   45 1
  45   22   23 ar
  46   22   25 1
  47   23   24 1

#	End of record

