#	Name: ASD01812415
#	Creating user name:	WinNT
#	Creation time:	15. 06. 2019 19:28

#	Modifying user name:	WinNT
#	Modification time:	15. 06. 2019 19:28

#	Program:	/corina/corina34_cracker 3.40 0067  02.08.2006

@<TRIPOS>MOLECULE
ASD01812415
  52   55    0    0    0
SMALL
NO_CHARGES


@<TRIPOS>ATOM
   1 C1            -0.0168     1.3897     0.0097 C.ar    
   2 C2             0.0021    -0.0041     0.0020 C.ar    
   3 C3             1.1796    -0.6877    -0.0124 C.ar    
   4 C4             2.3927     0.0187    -0.0202 C.ar    
   5 C5             2.3768     1.4381    -0.0129 C.ar    
   6 C6             1.1385     2.1078     0.0025 C.ar    
   7 C7             3.6297    -0.6529    -0.0346 C.ar    
   8 C8             4.7711     0.0956    -0.0411 C.ar    
   9 C9             4.6871     1.4959    -0.0333 C.ar    
  10 N10            3.5238     2.1168    -0.0202 N.ar    
  11 C11            5.9353     2.2963    -0.0400 C.2     
  12 O12            7.0146     1.7386    -0.0521 O.2     
  13 N13            5.8725     3.6426    -0.0327 N.am    
  14 C14            7.1057     4.4335    -0.0393 C.3     
  15 C15            3.6922    -2.1586    -0.0422 C.3     
  16 C16            7.5919     4.6110    -1.4801 C.3     
  17 O17            8.7622     5.4310    -1.4888 O.3     
  18 C18            8.5564     6.7471    -0.9716 C.3     
  19 C19            8.1089     6.6554     0.4896 C.3     
  20 C20            6.8336     5.8110     0.5729 C.3     
  21 C21            3.5763    -2.6591    -1.4590 C.ar    
  22 C22            4.7074    -2.8410    -2.2292 C.ar    
  23 N23            4.6170    -3.2787    -3.4709 N.ar    
  24 C24            3.4491    -3.5589    -4.0245 C.ar    
  25 C25            2.2696    -3.3993    -3.3081 C.ar    
  26 C26            2.3315    -2.9475    -2.0016 C.ar    
  27 O27            3.4024    -4.0062    -5.3046 O.3     
  28 C28            4.6493    -4.1487    -5.9879 C.3     
  29 O29            6.4496     5.6587     1.9409 O.3     
  30 H30           -0.9643     1.9080     0.0170 H       
  31 H31           -0.9302    -0.5493     0.0080 H       
  32 H32            1.1803    -1.7677    -0.0175 H       
  33 H33            1.1059     3.1873     0.0079 H       
  34 H34            5.7363    -0.3889    -0.0518 H       
  35 H35            5.0108     4.0879    -0.0231 H       
  36 H36            7.8709     3.9198     0.5427 H       
  37 H37            4.6417    -2.4850     0.3819 H       
  38 H38            2.8716    -2.5593     0.5529 H       
  39 H39            7.8278     3.6362    -1.9068 H       
  40 H40            6.8099     5.0873    -2.0715 H       
  41 H41            9.4871     7.3111    -1.0320 H       
  42 H42            7.7870     7.2513    -1.5563 H       
  43 H43            8.8949     6.1876     1.0826 H       
  44 H44            7.9089     7.6560     0.8728 H       
  45 H45            6.0333     6.3037     0.0209 H       
  46 H46            5.6785    -2.6220    -1.8105 H       
  47 H47            1.3175    -3.6288    -3.7633 H       
  48 H48            1.4312    -2.8142    -1.4201 H       
  49 H49            5.1512    -3.1822    -6.0335 H       
  50 H50            5.2781    -4.8597    -5.4520 H       
  51 H51            4.4697    -4.5129    -6.9994 H       
  52 H52            6.2683     6.4936     2.3938 H       
@<TRIPOS>BOND
   1    1    2 ar
   2    1    6 ar
   3    1   30 1
   4    2    3 ar
   5    2   31 1
   6    3    4 ar
   7    3   32 1
   8    4    5 ar
   9    4    7 ar
  10    5    6 ar
  11    5   10 ar
  12    6   33 1
  13    7    8 ar
  14    7   15 1
  15    8    9 ar
  16    8   34 1
  17    9   10 ar
  18    9   11 1
  19   11   12 2
  20   11   13 am
  21   13   14 1
  22   13   35 1
  23   14   16 1
  24   14   20 1
  25   14   36 1
  26   15   21 1
  27   15   37 1
  28   15   38 1
  29   16   17 1
  30   16   39 1
  31   16   40 1
  32   17   18 1
  33   18   19 1
  34   18   41 1
  35   18   42 1
  36   19   20 1
  37   19   43 1
  38   19   44 1
  39   20   29 1
  40   20   45 1
  41   21   22 ar
  42   21   26 ar
  43   22   23 ar
  44   22   46 1
  45   23   24 ar
  46   24   25 ar
  47   24   27 1
  48   25   26 ar
  49   25   47 1
  50   26   48 1
  51   27   28 1
  52   28   49 1
  53   28   50 1
  54   28   51 1
  55   29   52 1

#	End of record

