#	Name: ASD02030268
#	Creating user name:	WinNT
#	Creation time:	15. 06. 2019 20:14

#	Modifying user name:	WinNT
#	Modification time:	15. 06. 2019 20:14

#	Program:	/corina/corina34_cracker 3.40 0067  02.08.2006

@<TRIPOS>MOLECULE
ASD02030268
  49   52    0    0    0
SMALL
NO_CHARGES


@<TRIPOS>ATOM
   1 N1            -0.1562     1.7436     0.1076 N.am    
   2 C2            -0.2068     0.2965    -0.1436 C.3     
   3 C3            -1.0758    -0.3584     0.9372 C.3     
   4 N4            -2.3381     0.3871     1.0404 N.am    
   5 C5            -2.2875     1.8343     1.2916 C.3     
   6 C6            -1.4186     2.4882     0.2164 C.3     
   7 C7             1.0267     2.3756     0.2413 C.2     
   8 C8             2.2836     1.5975     0.2504 C.2     
   9 N9             3.4870     2.0741     0.4860 N.2     
  10 N10            2.3978     0.2758     0.0249 N.2     
  11 C11            3.6672    -0.0272     0.1222 C.2     
  12 N12            4.3362     1.1079     0.4111 N.pl3   
  13 C13            5.7208     1.2180     0.5975 C.ar    
  14 O14            1.0600     3.5855     0.3545 O.2     
  15 C15           -3.5210    -0.2449     0.9067 C.2     
  16 C16           -3.5566    -1.6633     0.5400 C.2     
  17 O17           -4.5596     0.3624     1.0904 O.2     
  18 C18            6.2868     2.4505     0.8919 C.ar    
  19 C19            7.6541     2.5556     1.0758 C.ar    
  20 C20            8.4562     1.4320     0.9660 C.ar    
  21 C21            7.8931     0.2038     0.6723 C.ar    
  22 C22            6.5282     0.0927     0.4935 C.ar    
  23 F23            8.2069     3.7546     1.3620 F       
  24 C24           -4.6766    -2.3886     0.2472 C.2     
  25 C25           -3.7018     2.4151     1.2350 C.3     
  26 C26           -3.6422     3.9264     1.4660 C.3     
  27 O27           -2.4880    -2.4799     0.4268 O.3     
  28 C28           -2.9003    -3.7053     0.0752 C.2     
  29 C29           -4.2484    -3.6922    -0.0463 C.2     
  30 Br30          -5.3478    -5.1555    -0.5216 Br      
  31 Br31          -1.7830    -5.2041    -0.2096 Br      
  32 H32           -0.6423     0.1106    -1.1254 H       
  33 H33            0.8008    -0.1173    -0.1033 H       
  34 H34           -1.2833    -1.3927     0.6628 H       
  35 H35           -0.5541    -0.3287     1.8938 H       
  36 H36           -1.8520     2.0201     2.2734 H       
  37 H37           -1.2120     3.5223     0.4919 H       
  38 H38           -1.9381     2.4590    -0.7415 H       
  39 H39            4.1003    -1.0086    -0.0032 H       
  40 H40            5.6608     3.3265     0.9771 H       
  41 H41            9.5233     1.5153     1.1098 H       
  42 H42            8.5211    -0.6707     0.5865 H       
  43 H43            6.0899    -0.8673     0.2641 H       
  44 H44           -5.6947    -2.0284     0.2428 H       
  45 H45           -4.1383     2.2140     0.2566 H       
  46 H46           -4.3155     1.9532     2.0085 H       
  47 H47           -3.2865     4.1256     2.4769 H       
  48 H48           -2.9601     4.3774     0.7454 H       
  49 H49           -4.6374     4.3527     1.3404 H       
@<TRIPOS>BOND
   1    1    2 1
   2    1    7 am
   3    1    6 1
   4    2    3 1
   5    2   32 1
   6    2   33 1
   7    3    4 1
   8    3   34 1
   9    3   35 1
  10    4    5 1
  11    4   15 am
  12    5    6 1
  13    5   25 1
  14    5   36 1
  15    6   37 1
  16    6   38 1
  17    7    8 1
  18    7   14 2
  19    8    9 2
  20    8   10 1
  21    9   12 1
  22   10   11 2
  23   11   12 1
  24   11   39 1
  25   12   13 1
  26   13   18 ar
  27   13   22 ar
  28   15   16 1
  29   15   17 2
  30   16   27 1
  31   16   24 2
  32   18   19 ar
  33   18   40 1
  34   19   20 ar
  35   19   23 1
  36   20   21 ar
  37   20   41 1
  38   21   22 ar
  39   21   42 1
  40   22   43 1
  41   24   29 1
  42   24   44 1
  43   25   26 1
  44   25   45 1
  45   25   46 1
  46   26   47 1
  47   26   48 1
  48   26   49 1
  49   27   28 1
  50   28   29 2
  51   28   31 1
  52   29   30 1

#	End of record

