#	Name: ASD01816900
#	Creating user name:	WinNT
#	Creation time:	15. 06. 2019 19:36

#	Modifying user name:	WinNT
#	Modification time:	15. 06. 2019 19:36

#	Program:	/corina/corina34_cracker 3.40 0067  02.08.2006

@<TRIPOS>MOLECULE
ASD01816900
  53   56    0    0    0
SMALL
NO_CHARGES


@<TRIPOS>ATOM
   1 C1            -0.3000     1.0727     0.1311 C.ar    
   2 C2            -0.1641    -0.3145     0.1168 C.ar    
   3 C3             1.0658    -0.8965     0.0643 C.ar    
   4 C4             2.2144    -0.0904     0.0241 C.ar    
   5 C5             2.0793     1.3226     0.0385 C.ar    
   6 C6             0.7901     1.8855     0.0932 C.ar    
   7 C7             3.5025    -0.6555    -0.0301 C.ar    
   8 C8             4.5762     0.1866    -0.0668 C.ar    
   9 C9             4.3750     1.5748    -0.0499 C.ar    
  10 N10            3.1645     2.0955     0.0009 N.ar    
  11 C11            5.5506     2.4775    -0.0902 C.2     
  12 N12            5.3750     3.8137    -0.0747 N.am    
  13 O13            6.6722     2.0127    -0.1372 O.2     
  14 C14            6.5365     4.7056    -0.1145 C.3     
  15 C15            6.1711     6.0515     0.5190 C.3     
  16 C16            3.6912    -2.1505    -0.0466 C.3     
  17 C17            3.5756    -2.6558    -1.4617 C.ar    
  18 C18            4.6952    -2.7402    -2.2665 C.ar    
  19 C19            2.3447    -3.0466    -1.9683 C.ar    
  20 C20            2.2828    -3.5054    -3.2736 C.ar    
  21 C21            3.4470    -3.5585    -4.0269 C.ar    
  22 N22            4.6045    -3.1818    -3.5070 N.ar    
  23 C23            7.3650     7.0027     0.4022 C.3     
  24 O24            7.7231     7.1488    -0.9735 O.3     
  25 C25            8.1197     5.9302    -1.6058 C.3     
  26 C26            6.9561     4.9359    -1.5696 C.3     
  27 O27            5.8475     5.8583     1.8974 O.3     
  28 O28            3.3992    -4.0063    -5.3077 O.3     
  29 C29            4.6319    -4.0395    -6.0297 C.3     
  30 O30            5.7735    -3.2486    -4.3033 O.3     
  31 H31           -1.2871     1.5094     0.1684 H       
  32 H32           -1.0466    -0.9363     0.1480 H       
  33 H33            1.1571    -1.9726     0.0541 H       
  34 H34            0.6670     2.9584     0.1054 H       
  35 H35            5.5780    -0.2149    -0.1083 H       
  36 H36            4.4796     4.1848    -0.0372 H       
  37 H37            7.3615     4.2549     0.4372 H       
  38 H38            5.3133     6.4780    -0.0011 H       
  39 H39            4.6771    -2.3967     0.3477 H       
  40 H40            2.9253    -2.6202     0.5706 H       
  41 H41            5.6566    -2.4408    -1.8759 H       
  42 H42            1.4548    -2.9947    -1.3585 H       
  43 H43            1.3408    -3.8180    -3.6996 H       
  44 H44            7.0960     7.9758     0.8131 H       
  45 H45            8.2102     6.5948     0.9565 H       
  46 H46            8.3945     6.1306    -2.6413 H       
  47 H47            8.9749     5.5083    -1.0777 H       
  48 H48            7.2708     3.9907    -2.0119 H       
  49 H49            6.1143     5.3398    -2.1319 H       
  50 H50            5.6058     6.6710     2.3623 H       
  51 H51            4.4531    -4.4163    -7.0368 H       
  52 H52            5.0469    -3.0332    -6.0866 H       
  53 H53            5.3361    -4.6945    -5.5165 H       
@<TRIPOS>BOND
   1    1    2 ar
   2    1    6 ar
   3    1   31 1
   4    2    3 ar
   5    2   32 1
   6    3    4 ar
   7    3   33 1
   8    4    5 ar
   9    4    7 ar
  10    5    6 ar
  11    5   10 ar
  12    6   34 1
  13    7    8 ar
  14    7   16 1
  15    8    9 ar
  16    8   35 1
  17    9   10 ar
  18    9   11 1
  19   11   12 am
  20   11   13 2
  21   12   14 1
  22   12   36 1
  23   14   15 1
  24   14   26 1
  25   14   37 1
  26   15   23 1
  27   15   27 1
  28   15   38 1
  29   16   17 1
  30   16   39 1
  31   16   40 1
  32   17   18 ar
  33   17   19 ar
  34   18   22 ar
  35   18   41 1
  36   19   20 ar
  37   19   42 1
  38   20   21 ar
  39   20   43 1
  40   21   22 ar
  41   21   28 1
  42   22   30 1
  43   23   24 1
  44   23   44 1
  45   23   45 1
  46   24   25 1
  47   25   26 1
  48   25   46 1
  49   25   47 1
  50   26   48 1
  51   26   49 1
  52   27   50 1
  53   28   29 1
  54   29   51 1
  55   29   52 1
  56   29   53 1

#	End of record

