#	Name: ASD01901043
#	Creating user name:	WinNT
#	Creation time:	15. 06. 2019 19:53

#	Modifying user name:	WinNT
#	Modification time:	15. 06. 2019 19:53

#	Program:	/corina/corina34_cracker 3.40 0067  02.08.2006

@<TRIPOS>MOLECULE
ASD01901043
  40   42    0    0    0
SMALL
NO_CHARGES


@<TRIPOS>ATOM
   1 C1             0.6932     2.7826     1.2166 C.ar    
   2 C2             1.7312     3.1839     2.0549 C.ar    
   3 C3             2.8955     2.4332     2.0914 C.ar    
   4 C4             2.9814     1.3067     1.2880 C.ar    
   5 C5             1.9097     0.9665     0.4783 C.ar    
   6 N6             0.8160     1.6970     0.4630 N.ar    
   7 C7            -0.5602     3.5707     1.1706 C.2     
   8 O8            -0.6799     4.5628     1.8623 O.2     
   9 N9            -1.5678     3.1875     0.3617 N.am    
  10 C10           -2.7854     3.8745     0.3882 C.ar    
  11 C11           -2.8049     5.2490     0.5876 C.ar    
  12 C12           -4.0092     5.9245     0.6127 C.ar    
  13 C13           -5.1948     5.2341     0.4400 C.ar    
  14 C14           -5.1789     3.8656     0.2412 C.ar    
  15 C15           -3.9777     3.1849     0.2093 C.ar    
  16 S16           -6.7291     6.0997     0.4738 S.o2    
  17 O17           -7.7210     5.1447     0.8254 O.2     
  18 O18           -6.5012     7.2916     1.2132 O.2     
  19 N19           -7.0615     6.5690    -1.0791 N.am    
  20 C20           -7.2086     5.6076    -2.0838 C.ar    
  21 C21           -6.7590     5.8727    -3.3734 C.ar    
  22 C22           -6.9053     4.9202    -4.3644 C.ar    
  23 C23           -7.4985     3.7046    -4.0752 C.ar    
  24 C24           -7.9474     3.4378    -2.7931 C.ar    
  25 C25           -7.7981     4.3850    -1.7952 C.ar    
  26 F26           -8.5267     2.2495    -2.5145 F       
  27 F27           -6.1804     7.0601    -3.6570 F       
  28 H28            1.6301     4.0678     2.6673 H       
  29 H29            3.7174     2.7194     2.7309 H       
  30 H30            3.8751     0.7003     1.2929 H       
  31 H31            1.9734     0.0897    -0.1491 H       
  32 H32           -1.4484     2.4352    -0.2388 H       
  33 H33           -1.8793     5.7887     0.7232 H       
  34 H34           -4.0250     6.9932     0.7677 H       
  35 H35           -6.1067     3.3293     0.1070 H       
  36 H36           -3.9658     2.1167     0.0500 H       
  37 H37           -7.1542     7.5109    -1.2918 H       
  38 H38           -6.5565     5.1255    -5.3656 H       
  39 H39           -7.6120     2.9621    -4.8513 H       
  40 H40           -8.1441     4.1746    -0.7940 H       
@<TRIPOS>BOND
   1    1    2 ar
   2    1    6 ar
   3    1    7 1
   4    2    3 ar
   5    2   28 1
   6    3    4 ar
   7    3   29 1
   8    4    5 ar
   9    4   30 1
  10    5    6 ar
  11    5   31 1
  12    7    8 2
  13    7    9 am
  14    9   10 1
  15    9   32 1
  16   10   11 ar
  17   10   15 ar
  18   11   12 ar
  19   11   33 1
  20   12   13 ar
  21   12   34 1
  22   13   14 ar
  23   13   16 1
  24   14   15 ar
  25   14   35 1
  26   15   36 1
  27   16   17 2
  28   16   18 2
  29   16   19 am
  30   19   20 1
  31   19   37 1
  32   20   21 ar
  33   20   25 ar
  34   21   22 ar
  35   21   27 1
  36   22   23 ar
  37   22   38 1
  38   23   24 ar
  39   23   39 1
  40   24   25 ar
  41   24   26 1
  42   25   40 1

#	End of record

