#	Name: ASD01811162
#	Creating user name:	WinNT
#	Creation time:	15. 06. 2019 19:26

#	Modifying user name:	WinNT
#	Modification time:	15. 06. 2019 19:26

#	Program:	/corina/corina34_cracker 3.40 0067  02.08.2006

@<TRIPOS>MOLECULE
ASD01811162
  63   67    0    0    0
SMALL
NO_CHARGES


@<TRIPOS>ATOM
   1 C1            -5.9186     2.0870    -4.4720 C.1     
   2 C2            -5.0900     2.9792    -3.7183 C.ar    
   3 C3            -3.8628     2.5410    -3.2164 C.ar    
   4 C4            -3.0696     3.4057    -2.4911 C.ar    
   5 C5            -3.4876     4.7043    -2.2603 C.ar    
   6 C6            -4.7026     5.1449    -2.7544 C.ar    
   7 C7            -5.5028     4.2928    -3.4870 C.ar    
   8 N8            -6.5760     1.3793    -5.0699 N.1     
   9 N9            -1.9975     8.1286    -0.2668 N.am    
  10 C10           -1.3350     7.7866    -1.5328 C.3     
  11 C11           -2.2493     6.8518    -2.3309 C.3     
  12 C12           -2.6158     5.6430    -1.4667 C.3     
  13 C13           -3.3734     6.1139    -0.2231 C.3     
  14 C14           -2.4719     7.0403     0.5988 C.3     
  15 C15           -2.1619     9.4161     0.0963 C.2     
  16 C16           -2.9164     9.7475     1.3240 C.ar    
  17 C17           -4.0122    10.6116     1.2604 C.ar    
  18 C18           -4.7181    10.9217     2.4056 C.ar    
  19 C19           -4.3469    10.3810     3.6209 C.ar    
  20 C20           -3.2533     9.5157     3.6988 C.ar    
  21 C21           -2.5396     9.1942     2.5456 C.ar    
  22 O22           -1.6900    10.3049    -0.5856 O.2     
  23 C23           -4.4244    11.2069    -0.0612 C.3     
  24 C24           -5.2598    10.1892    -0.8406 C.3     
  25 C25           -5.1232    10.7257     4.8657 C.3     
  26 C26           -5.2159    12.2369     5.1352 C.3     
  27 C27           -6.6731    11.9919     5.5610 C.3     
  28 C28           -6.6463    10.7495     4.6551 C.3     
  29 O29           -2.5765     7.6396     5.2471 O.3     
  30 C30           -2.8571     8.9382     5.0002 C.2     
  31 N31           -2.7126     9.5912     6.1271 N.2     
  32 N32           -2.3596     8.7717     7.0539 N.2     
  33 C33           -2.2648     7.5619     6.5542 C.2     
  34 N34           -1.9109     6.4187     7.2433 N.pl3   
  35 H35           -3.5357     1.5274    -3.3952 H       
  36 H36           -2.1202     3.0682    -2.1023 H       
  37 H37           -5.0230     6.1597    -2.5702 H       
  38 H38           -6.4487     4.6394    -3.8761 H       
  39 H39           -1.1513     8.6952    -2.1062 H       
  40 H40           -0.3896     7.2848    -1.3266 H       
  41 H41           -3.1567     7.3850    -2.6142 H       
  42 H42           -1.7303     6.5137    -3.2278 H       
  43 H43           -1.7063     5.1246    -1.1630 H       
  44 H44           -4.2703     6.6540    -0.5263 H       
  45 H45           -3.6545     5.2506     0.3801 H       
  46 H46           -1.6192     6.4776     0.9789 H       
  47 H47           -3.0383     7.4566     1.4319 H       
  48 H48           -5.5643    11.5906     2.3509 H       
  49 H49           -1.6957     8.5224     2.5996 H       
  50 H50           -5.0166    12.1052     0.1138 H       
  51 H51           -3.5354    11.4642    -0.6369 H       
  52 H52           -4.6677     9.2910    -1.0156 H       
  53 H53           -6.1489     9.9319    -0.2649 H       
  54 H54           -5.5580    10.6198    -1.7965 H       
  55 H55           -4.8101    10.1458     5.7339 H       
  56 H56           -4.5743    12.5755     5.9487 H       
  57 H57           -5.1202    12.8472     4.2372 H       
  58 H58           -6.7852    11.7579     6.6197 H       
  59 H59           -7.3629    12.7647     5.2219 H       
  60 H60           -6.9416    10.9532     3.6258 H       
  61 H61           -7.1595     9.8874     5.0810 H       
  62 H62           -1.8699     5.5669     6.7810 H       
  63 H63           -1.7033     6.4675     8.1896 H       
@<TRIPOS>BOND
   1    1    2 1
   2    1    8 3
   3    2    3 ar
   4    2    7 ar
   5    3    4 ar
   6    3   35 1
   7    4    5 ar
   8    4   36 1
   9    5    6 ar
  10    5   12 1
  11    6    7 ar
  12    6   37 1
  13    7   38 1
  14    9   10 1
  15    9   14 1
  16    9   15 am
  17   10   11 1
  18   10   39 1
  19   10   40 1
  20   11   12 1
  21   11   41 1
  22   11   42 1
  23   12   13 1
  24   12   43 1
  25   13   14 1
  26   13   44 1
  27   13   45 1
  28   14   46 1
  29   14   47 1
  30   15   16 1
  31   15   22 2
  32   16   17 ar
  33   16   21 ar
  34   17   18 ar
  35   17   23 1
  36   18   19 ar
  37   18   48 1
  38   19   20 ar
  39   19   25 1
  40   20   21 ar
  41   20   30 1
  42   21   49 1
  43   23   24 1
  44   23   50 1
  45   23   51 1
  46   24   52 1
  47   24   53 1
  48   24   54 1
  49   25   26 1
  50   25   28 1
  51   25   55 1
  52   26   27 1
  53   26   56 1
  54   26   57 1
  55   27   28 1
  56   27   58 1
  57   27   59 1
  58   28   60 1
  59   28   61 1
  60   29   30 1
  61   29   33 1
  62   30   31 2
  63   31   32 1
  64   32   33 2
  65   33   34 1
  66   34   62 1
  67   34   63 1

#	End of record

