#	Name: ASD04590486
#	Creating user name:	WinNT
#	Creation time:	15. 06. 2019 20:50

#	Modifying user name:	WinNT
#	Modification time:	15. 06. 2019 20:50

#	Program:	/corina/corina34_cracker 3.40 0067  02.08.2006

@<TRIPOS>MOLECULE
ASD04590486
  55   59    0    0    0
SMALL
NO_CHARGES


@<TRIPOS>ATOM
   1 C1            -0.0167     1.3834     0.0096 C.ar    
   2 C2             0.0021    -0.0041     0.0020 C.ar    
   3 C3             2.3948     0.0191    -0.0207 C.ar    
   4 C4             2.3756     1.4249    -0.0129 C.ar    
   5 C5             1.1624     2.0987     0.0022 C.ar    
   6 N6             3.6952    -0.3636    -0.0358 N.2     
   7 C7             4.4664     0.6967    -0.0380 C.2     
   8 N8             3.6970     1.8290    -0.0241 N.pl3   
   9 C9             5.9437     0.6731    -0.0523 C.2     
  10 C10            6.7566    -0.4840    -0.0663 C.2     
  11 C11            8.0504    -0.0799    -0.0765 C.2     
  12 N12            8.0626     1.2789    -0.0693 N.pl3   
  13 N13            6.7358     1.7272    -0.0599 N.2     
  14 N14            6.3044    -1.8133    -0.0685 N.am    
  15 C15            7.1924    -2.8271    -0.0826 C.2     
  16 O16            8.3849    -2.5906    -0.0934 O.2     
  17 C17            1.1863    -0.6848    -0.0129 C.ar    
  18 C18            6.7164    -4.2266    -0.0848 C.ar    
  19 C19            5.3481    -4.5016    -0.0724 C.ar    
  20 C20           -1.2971    -0.7677     0.0108 C.3     
  21 N21           -1.7330    -1.0083    -1.3712 N.3     
  22 C22           -2.8627    -1.9482    -1.4113 C.3     
  23 C23           -0.6194    -1.4969    -2.1974 C.3     
  24 C24           -1.1015    -1.6771    -3.6393 C.3     
  25 O25           -2.2192    -2.5691    -3.6549 O.3     
  26 C26           -3.3223    -2.1239    -2.8610 C.3     
  27 C27            4.9105    -5.8101    -0.0746 C.ar    
  28 C28            5.8246    -6.8483    -0.0890 C.ar    
  29 C29            7.1826    -6.5826    -0.1014 C.ar    
  30 C30            7.6334    -5.2790    -0.1052 C.ar    
  31 C31            8.1711    -7.7200    -0.1165 C.3     
  32 F32            7.4815    -8.9372    -0.1153 F       
  33 F33            8.9634    -7.6340    -1.2664 F       
  34 F34            8.9862    -7.6447     1.0180 F       
  35 H35           -0.9614     1.9069     0.0169 H       
  36 H36            1.1417     3.1785     0.0079 H       
  37 H37            4.0192     2.7439    -0.0228 H       
  38 H38            8.9176    -0.7236    -0.0878 H       
  39 H39            8.8531     1.8410    -0.0738 H       
  40 H40            5.3530    -2.0020    -0.0598 H       
  41 H41            1.1893    -1.7648    -0.0184 H       
  42 H42            4.6335    -3.6919    -0.0608 H       
  43 H43           -1.1544    -1.7218     0.5181 H       
  44 H44           -2.0561    -0.1872     0.5353 H       
  45 H45           -2.5490    -2.9117    -1.0096 H       
  46 H46           -3.6851    -1.5545    -0.8139 H       
  47 H47            0.1958    -0.7737    -2.1739 H       
  48 H48           -0.2698    -2.4532    -1.8083 H       
  49 H49           -1.4009    -0.7113    -4.0463 H       
  50 H50           -0.2952    -2.0932    -4.2433 H       
  51 H51           -4.1222    -2.8632    -2.9022 H       
  52 H52           -3.6863    -1.1711    -3.2454 H       
  53 H53            3.8520    -6.0242    -0.0646 H       
  54 H54            5.4768    -7.8708    -0.0903 H       
  55 H55            8.6935    -5.0730    -0.1149 H       
@<TRIPOS>BOND
   1    1    2 ar
   2    1    5 ar
   3    1   35 1
   4    2   17 ar
   5    2   20 1
   6    3    4 ar
   7    3    6 1
   8    3   17 ar
   9    4    5 ar
  10    4    8 1
  11    5   36 1
  12    6    7 2
  13    7    8 1
  14    7    9 1
  15    8   37 1
  16    9   10 1
  17    9   13 2
  18   10   11 2
  19   10   14 1
  20   11   12 1
  21   11   38 1
  22   12   13 1
  23   12   39 1
  24   14   15 am
  25   14   40 1
  26   15   16 2
  27   15   18 1
  28   17   41 1
  29   18   19 ar
  30   18   30 ar
  31   19   27 ar
  32   19   42 1
  33   20   21 1
  34   20   43 1
  35   20   44 1
  36   21   22 1
  37   21   23 1
  38   22   26 1
  39   22   45 1
  40   22   46 1
  41   23   24 1
  42   23   47 1
  43   23   48 1
  44   24   25 1
  45   24   49 1
  46   24   50 1
  47   25   26 1
  48   26   51 1
  49   26   52 1
  50   27   28 ar
  51   27   53 1
  52   28   29 ar
  53   28   54 1
  54   29   30 ar
  55   29   31 1
  56   30   55 1
  57   31   32 1
  58   31   33 1
  59   31   34 1

#	End of record

