#	Name: ASD03240996
#	Creating user name:	WinNT
#	Creation time:	15. 06. 2019 20:35

#	Modifying user name:	WinNT
#	Modification time:	15. 06. 2019 20:35

#	Program:	/corina/corina34_cracker 3.40 0067  02.08.2006

@<TRIPOS>MOLECULE
ASD03240996
  59   64    0    0    0
SMALL
NO_CHARGES


@<TRIPOS>ATOM
   1 N1            -0.0120     1.4202    -0.4081 N.pl3   
   2 C2            -0.0539     0.0589    -0.2606 C.2     
   3 N3             1.0425    -0.6433     0.0711 N.2     
   4 C4             2.1997    -0.0666     0.2691 C.2     
   5 C5             2.3185     1.3365     0.1344 C.ar    
   6 C6             3.5510     1.9961     0.3402 C.ar    
   7 C7             3.5785     3.3920     0.1855 C.ar    
   8 C8             2.3906     4.0631    -0.1637 C.ar    
   9 N9             1.2574     3.4041    -0.3468 N.ar    
  10 C10            1.1798     2.0913    -0.2127 C.ar    
  11 C11           -1.3613    -0.3310    -0.5145 C.2     
  12 C12           -2.0923     0.8120    -0.8135 C.2     
  13 N13           -1.2980     1.8543    -0.7469 N.2     
  14 C14            4.7312     1.2668     0.6948 C.1     
  15 N15            5.6675     0.6882     0.9761 N.1     
  16 C16            4.8363     4.1459     0.3867 C.ar    
  17 C17            5.8994     3.9849    -0.5024 C.ar    
  18 C18            7.0690     4.6908    -0.3096 C.ar    
  19 C19            7.1889     5.5569     0.7627 C.ar    
  20 C20            6.1384     5.7210     1.6479 C.ar    
  21 C21            4.9616     5.0248     1.4630 C.ar    
  22 C22           -3.5600     0.8493    -1.1533 C.3     
  23 C23            2.4096     5.5346    -0.3286 C.ar    
  24 C24            3.4472     6.1472    -1.0314 C.ar    
  25 C25            3.4591     7.5186    -1.1821 C.ar    
  26 C26            2.4447     8.2860    -0.6378 C.ar    
  27 C27            1.4131     7.6844     0.0607 C.ar    
  28 C28            1.3870     6.3133     0.2133 C.ar    
  29 C29            2.4638     9.7835    -0.8061 C.3     
  30 C30            1.0632    10.4174    -0.8406 C.3     
  31 C31            1.6446    11.5586     0.0104 C.3     
  32 C32            2.6915    10.5482     0.5085 C.3     
  33 C33            2.2393    12.6992    -0.8179 C.3     
  34 O34            0.7596    12.0174     1.0342 O.3     
  35 N35            3.3366    10.2246    -1.9023 N.3     
  36 H36            3.0620    -0.6600     0.5351 H       
  37 H37           -1.7420    -1.3412    -0.4849 H       
  38 H38            5.8071     3.3088    -1.3396 H       
  39 H39            7.8928     4.5668    -0.9969 H       
  40 H40            8.1067     6.1070     0.9095 H       
  41 H41            6.2383     6.3983     2.4831 H       
  42 H42            4.1406     5.1570     2.1522 H       
  43 H43           -4.1414     0.9732    -0.2397 H       
  44 H44           -3.7563     1.6850    -1.8251 H       
  45 H45           -3.8438    -0.0833    -1.6410 H       
  46 H46            4.2398     5.5492    -1.4565 H       
  47 H47            4.2621     7.9941    -1.7257 H       
  48 H48            0.6243     8.2888     0.4836 H       
  49 H49            0.5787     5.8444     0.7547 H       
  50 H50            0.7503    10.7311    -1.8365 H       
  51 H51            0.3050     9.8295    -0.3233 H       
  52 H52            2.3785     9.9962     1.3947 H       
  53 H53            3.6933    10.9676     0.6017 H       
  54 H54            1.4647    13.1292    -1.4530 H       
  55 H55            2.6300    13.4675    -0.1507 H       
  56 H56            3.0468    12.3136    -1.4403 H       
  57 H57            1.1197    12.7352     1.5729 H       
  58 H58            4.2431     9.7857    -1.8417 H       
  59 H59            2.9085    10.0480    -2.7988 H       
@<TRIPOS>BOND
   1    1    2 1
   2    1   10 1
   3    1   13 1
   4    2    3 1
   5    2   11 2
   6    3    4 2
   7    4    5 1
   8    4   36 1
   9    5    6 ar
  10    5   10 ar
  11    6    7 ar
  12    6   14 1
  13    7    8 ar
  14    7   16 1
  15    8    9 ar
  16    8   23 1
  17    9   10 ar
  18   11   12 1
  19   11   37 1
  20   12   13 2
  21   12   22 1
  22   14   15 3
  23   16   17 ar
  24   16   21 ar
  25   17   18 ar
  26   17   38 1
  27   18   19 ar
  28   18   39 1
  29   19   20 ar
  30   19   40 1
  31   20   21 ar
  32   20   41 1
  33   21   42 1
  34   22   43 1
  35   22   44 1
  36   22   45 1
  37   23   24 ar
  38   23   28 ar
  39   24   25 ar
  40   24   46 1
  41   25   26 ar
  42   25   47 1
  43   26   27 ar
  44   26   29 1
  45   27   28 ar
  46   27   48 1
  47   28   49 1
  48   29   30 1
  49   29   32 1
  50   29   35 1
  51   30   31 1
  52   30   50 1
  53   30   51 1
  54   31   32 1
  55   31   33 1
  56   31   34 1
  57   32   52 1
  58   32   53 1
  59   33   54 1
  60   33   55 1
  61   33   56 1
  62   34   57 1
  63   35   58 1
  64   35   59 1

#	End of record

