#	Name: ASD05832007
#	Creating user name:	WinNT
#	Creation time:	15. 06. 2019 21:03

#	Modifying user name:	WinNT
#	Modification time:	15. 06. 2019 21:03

#	Program:	/corina/corina34_cracker 3.40 0067  02.08.2006

@<TRIPOS>MOLECULE
ASD05832007
  54   56    0    0    0
SMALL
NO_CHARGES


@<TRIPOS>ATOM
   1 C1            -0.2701     2.0247     0.0446 C.2     
   2 C2            -0.3699     0.6747    -0.0442 C.2     
   3 C3             0.8125    -0.1775    -0.1401 C.2     
   4 N4             2.0712     0.3773    -0.1424 N.pl3   
   5 C5             2.2009     1.8369    -0.0467 C.3     
   6 N6             0.9804     2.6416     0.0467 N.pl3   
   7 C7             0.7510     4.0860     0.1520 C.3     
   8 C8            -0.7472     4.2650     0.2108 C.2     
   9 C9            -1.3058     3.0618     0.1423 C.2     
  10 C10            0.9634    -1.5448    -0.2385 C.2     
  11 C11            2.3407    -1.8074    -0.3006 C.2     
  12 C12            2.9915    -0.6249    -0.2406 C.2     
  13 C13           -2.7893     2.7978     0.1692 C.3     
  14 C14            1.3975     4.6309     1.4271 C.3     
  15 F15            2.9833     2.1200     1.0780 F       
  16 F16            2.9112     2.2739    -1.1699 F       
  17 C17           -0.1440    -2.5664    -0.2725 C.3     
  18 C18            4.4871    -0.4431    -0.2761 C.3     
  19 C19           -1.7357     0.0379    -0.0435 C.3     
  20 C20           -2.0842    -0.4020     1.3551 C.2     
  21 C21           -3.1944     0.0114     1.9143 C.2     
  22 C22           -3.5428    -0.4285     3.3129 C.3     
  23 C23           -3.7904     0.8020     4.1878 C.3     
  24 C24           -4.1441     0.3554     5.6078 C.3     
  25 O25           -4.2612     1.5021     6.4525 O.3     
  26 N26           -4.9014     1.5843     3.6294 N.3     
  27 O27           -2.4620    -1.1894     3.8561 O.3     
  28 H28            1.1560     4.5953    -0.7225 H       
  29 H29           -1.2721     5.2055     0.2911 H       
  30 H30            2.7991    -2.7819    -0.3817 H       
  31 H31           -3.3222     3.7349     0.3305 H       
  32 H32           -3.0982     2.3631    -0.7814 H       
  33 H33           -3.0204     2.1046     0.9779 H       
  34 H34            2.4705     4.4408     1.4002 H       
  35 H35            1.2203     5.7043     1.4941 H       
  36 H36            0.9624     4.1359     2.2952 H       
  37 H37           -0.5157    -2.6655    -1.2924 H       
  38 H38            0.2381    -3.5280     0.0701 H       
  39 H39           -0.9555    -2.2444     0.3802 H       
  40 H40            4.8149    -0.3296    -1.3094 H       
  41 H41            4.7584     0.4473     0.2911 H       
  42 H42            4.9697    -1.3156     0.1644 H       
  43 H43           -2.4738     0.7606    -0.3915 H       
  44 H44           -1.7336    -0.8272    -0.7066 H       
  45 H45           -1.4186    -1.0580     1.8965 H       
  46 H46           -3.8600     0.6674     1.3730 H       
  47 H47           -4.4428    -1.0429     3.2870 H       
  48 H48           -2.8904     1.4164     4.2137 H       
  49 H49           -5.0913    -0.1837     5.5937 H       
  50 H50           -3.3596    -0.2982     5.9891 H       
  51 H51           -4.4844     1.2936     7.3700 H       
  52 H52           -4.6667     1.9452     2.7169 H       
  53 H53           -5.7479     1.0363     3.5948 H       
  54 H54           -1.6272    -0.7044     3.9092 H       
@<TRIPOS>BOND
   1    1    2 2
   2    1    6 1
   3    1    9 1
   4    2    3 1
   5    2   19 1
   6    3    4 1
   7    3   10 2
   8    4    5 1
   9    4   12 1
  10    5    6 1
  11    5   15 1
  12    5   16 1
  13    6    7 1
  14    7    8 1
  15    7   14 1
  16    7   28 1
  17    8    9 2
  18    8   29 1
  19    9   13 1
  20   10   11 1
  21   10   17 1
  22   11   12 2
  23   11   30 1
  24   12   18 1
  25   13   31 1
  26   13   32 1
  27   13   33 1
  28   14   34 1
  29   14   35 1
  30   14   36 1
  31   17   37 1
  32   17   38 1
  33   17   39 1
  34   18   40 1
  35   18   41 1
  36   18   42 1
  37   19   20 1
  38   19   43 1
  39   19   44 1
  40   20   21 2
  41   20   45 1
  42   21   22 1
  43   21   46 1
  44   22   23 1
  45   22   27 1
  46   22   47 1
  47   23   24 1
  48   23   26 1
  49   23   48 1
  50   24   25 1
  51   24   49 1
  52   24   50 1
  53   25   51 1
  54   26   52 1
  55   26   53 1
  56   27   54 1

#	End of record

