#	Name: ASD04880003
#	Creating user name:	WinNT
#	Creation time:	15. 06. 2019 20:52

#	Modifying user name:	WinNT
#	Modification time:	15. 06. 2019 20:52

#	Program:	/corina/corina34_cracker 3.40 0067  02.08.2006

@<TRIPOS>MOLECULE
ASD04880003
  42   45    0    0    0
SMALL
NO_CHARGES


@<TRIPOS>ATOM
   1 C1            -0.0144     1.2119     0.0087 C.2     
   2 O2             0.0476    -0.0024     0.0311 O.2     
   3 N3             1.1161     1.9435    -0.0477 N.am    
   4 N4             1.1792     3.3281    -0.1899 N.2     
   5 C5             2.3772     3.8004    -0.2179 C.2     
   6 C6             3.3699     2.6678    -0.0834 C.3     
   7 C7             2.4853     1.4111     0.0372 C.3     
   8 N8             2.5704     7.4061    -0.5890 N.pl3   
   9 N9             3.9263     7.0642    -0.5306 N.2     
  10 C10            4.0296     5.7699    -0.3943 C.2     
  11 C11            2.7270     5.2268    -0.3598 C.2     
  12 C12            1.8427     6.2768    -0.4839 C.2     
  13 C13            2.0336     8.7615    -0.7334 C.3     
  14 C14            4.2449    11.1395     1.1976 C.ar    
  15 C15            3.7677    10.3436     0.1735 C.ar    
  16 C16            2.5873     9.6401     0.3586 C.ar    
  17 C17            1.9282     9.7646     1.5720 C.ar    
  18 C18            2.4659    10.5799     2.5499 C.ar    
  19 N19            3.5913    11.2341     2.3390 N.ar    
  20 C20           -1.3298     1.8853     0.0372 C.ar    
  21 C21           -1.4036     3.2742     0.1560 C.ar    
  22 C22           -2.6366     3.8971     0.1815 C.ar    
  23 C23           -3.7972     3.1450     0.0899 C.ar    
  24 C24           -3.7287     1.7686    -0.0274 C.ar    
  25 C25           -2.5031     1.1355    -0.0603 C.ar    
  26 F26           -2.7111     5.2411     0.2963 F       
  27 H27            4.0051     2.6092    -0.9672 H       
  28 H28            3.9740     2.7936     0.8151 H       
  29 H29            2.6461     0.9171     0.9954 H       
  30 H30            2.6820     0.7253    -0.7869 H       
  31 H31            4.9513     5.2117    -0.3207 H       
  32 H32            0.7649     6.2074    -0.4943 H       
  33 H33            2.3208     9.1644    -1.7047 H       
  34 H34            0.9465     8.7315    -0.6596 H       
  35 H35            5.1660    11.6871     1.0631 H       
  36 H36            4.3074    10.2705    -0.7591 H       
  37 H37            1.0062     9.2314     1.7507 H       
  38 H38            1.9586    10.6823     3.4978 H       
  39 H39           -0.4994     3.8603     0.2280 H       
  40 H40           -4.7591     3.6357     0.1106 H       
  41 H41           -4.6367     1.1882    -0.0976 H       
  42 H42           -2.4519     0.0610    -0.1564 H       
@<TRIPOS>BOND
   1    1    2 2
   2    1    3 am
   3    1   20 1
   4    3    4 1
   5    3    7 1
   6    4    5 2
   7    5    6 1
   8    5   11 1
   9    6    7 1
  10    6   27 1
  11    6   28 1
  12    7   29 1
  13    7   30 1
  14    8    9 1
  15    8   12 1
  16    8   13 1
  17    9   10 2
  18   10   11 1
  19   10   31 1
  20   11   12 2
  21   12   32 1
  22   13   16 1
  23   13   33 1
  24   13   34 1
  25   14   15 ar
  26   14   19 ar
  27   14   35 1
  28   15   16 ar
  29   15   36 1
  30   16   17 ar
  31   17   18 ar
  32   17   37 1
  33   18   19 ar
  34   18   38 1
  35   20   21 ar
  36   20   25 ar
  37   21   22 ar
  38   21   39 1
  39   22   23 ar
  40   22   26 1
  41   23   24 ar
  42   23   40 1
  43   24   25 ar
  44   24   41 1
  45   25   42 1

#	End of record

