#	Name: ASD01812271
#	Creating user name:	WinNT
#	Creation time:	15. 06. 2019 19:28

#	Modifying user name:	WinNT
#	Modification time:	15. 06. 2019 19:28

#	Program:	/corina/corina34_cracker 3.40 0067  02.08.2006

@<TRIPOS>MOLECULE
ASD01812271
  70   75    0    0    0
SMALL
NO_CHARGES


@<TRIPOS>ATOM
   1 C1            -0.0352     1.3592     0.2227 C.ar    
   2 C2            -0.0050    -0.0342     0.2215 C.ar    
   3 C3             1.1902    -0.6900     0.1367 C.ar    
   4 C4             2.3662     0.0786     0.0523 C.ar    
   5 C5             2.2637     1.4932     0.0586 C.ar    
   6 N6             1.0613     2.0721     0.1440 N.ar    
   7 C7             3.6302    -0.5292    -0.0370 C.ar    
   8 C8             4.7502     0.2336    -0.1170 C.ar    
   9 C9             4.6679     1.6393    -0.1121 C.ar    
  10 C10            3.4327     2.2602    -0.0254 C.ar    
  11 C11            3.7425    -2.0320    -0.0434 C.3     
  12 C12            5.7085     2.6854    -0.1868 C.2     
  13 N13            5.1466     3.9057    -0.1478 N.am    
  14 C14            3.6916     3.7456    -0.0447 C.3     
  15 O15            6.9023     2.4727    -0.2714 O.2     
  16 C16            5.8658     5.1810    -0.1991 C.3     
  17 C17            6.6542     5.2697    -1.5074 C.3     
  18 C18            7.4053     6.6016    -1.5609 C.3     
  19 C19            8.3702     6.6909    -0.3769 C.3     
  20 C20            7.5818     6.6023     0.9313 C.3     
  21 C21            6.8307     5.2704     0.9849 C.3     
  22 N22            3.5473    -2.5434     1.3198 N.3     
  23 C23            3.2840    -3.9880     1.3073 C.3     
  24 C24            2.9428    -4.4580     2.7232 C.3     
  25 C25            4.1146    -4.1421     3.6568 C.3     
  26 C26            4.3995    -2.6382     3.6145 C.3     
  27 C27            4.6984    -2.2209     2.1727 C.3     
  28 O28            5.7530     5.1862    -2.6132 O.3     
  29 C29            3.7609    -4.5482     5.0642 C.ar    
  30 F30            5.2493    -4.8448     3.2373 F       
  31 C31            4.7512    -4.6529     6.0230 C.ar    
  32 C32            4.4267    -5.0255     7.3140 C.ar    
  33 C33            3.1118    -5.2930     7.6464 C.ar    
  34 C34            2.1214    -5.1875     6.6878 C.ar    
  35 C35            2.4453    -4.8107     5.3979 C.ar    
  36 C36            3.0052     4.3837    -1.2541 C.3     
  37 H37           -0.9876     1.8646     0.2857 H       
  38 H38           -0.9257    -0.5949     0.2879 H       
  39 H39            1.2317    -1.7692     0.1348 H       
  40 H40            5.7167    -0.2437    -0.1848 H       
  41 H41            2.9806    -2.4505    -0.7010 H       
  42 H42            4.7305    -2.3209    -0.4018 H       
  43 H43            3.3286     4.2023     0.8760 H       
  44 H44            5.1518     6.0031    -0.1488 H       
  45 H45            7.3682     4.4476    -1.5577 H       
  46 H46            7.9669     6.6647    -2.4930 H       
  47 H47            6.6912     7.4236    -1.5106 H       
  48 H48            9.0842     5.8689    -0.4273 H       
  49 H49            8.9052     7.6398    -0.4151 H       
  50 H50            8.2692     6.6660     1.7748 H       
  51 H51            6.8677     7.4243     0.9816 H       
  52 H52            6.2690     5.2072     1.9169 H       
  53 H53            7.5447     4.4484     0.9345 H       
  54 H54            2.4459    -4.1986     0.6429 H       
  55 H55            4.1695    -4.5156     0.9529 H       
  56 H56            2.0493    -3.9410     3.0729 H       
  57 H57            2.7627    -5.5330     2.7162 H       
  58 H58            3.5289    -2.0925     3.9782 H       
  59 H59            5.2602    -2.4130     4.2443 H       
  60 H60            5.5774    -2.7568     1.8144 H       
  61 H61            4.8877    -1.1481     2.1370 H       
  62 H62            6.1847     5.2358    -3.4771 H       
  63 H63            5.7784    -4.4438     5.7633 H       
  64 H64            5.2005    -5.1079     8.0629 H       
  65 H65            2.8584    -5.5848     8.6549 H       
  66 H66            1.0942    -5.3968     6.9474 H       
  67 H67            1.6715    -4.7282     4.6490 H       
  68 H68            3.3542     3.9006    -2.1668 H       
  69 H69            1.9258     4.2589    -1.1669 H       
  70 H70            3.2463     5.4460    -1.2902 H       
@<TRIPOS>BOND
   1    1    2 ar
   2    1    6 ar
   3    1   37 1
   4    2    3 ar
   5    2   38 1
   6    3    4 ar
   7    3   39 1
   8    4    5 ar
   9    4    7 ar
  10    5    6 ar
  11    5   10 ar
  12    7    8 ar
  13    7   11 1
  14    8    9 ar
  15    8   40 1
  16    9   10 ar
  17    9   12 1
  18   10   14 1
  19   11   22 1
  20   11   41 1
  21   11   42 1
  22   12   13 am
  23   12   15 2
  24   13   14 1
  25   13   16 1
  26   14   36 1
  27   14   43 1
  28   16   17 1
  29   16   21 1
  30   16   44 1
  31   17   18 1
  32   17   28 1
  33   17   45 1
  34   18   19 1
  35   18   46 1
  36   18   47 1
  37   19   20 1
  38   19   48 1
  39   19   49 1
  40   20   21 1
  41   20   50 1
  42   20   51 1
  43   21   52 1
  44   21   53 1
  45   22   23 1
  46   22   27 1
  47   23   24 1
  48   23   54 1
  49   23   55 1
  50   24   25 1
  51   24   56 1
  52   24   57 1
  53   25   26 1
  54   25   29 1
  55   25   30 1
  56   26   27 1
  57   26   58 1
  58   26   59 1
  59   27   60 1
  60   27   61 1
  61   28   62 1
  62   29   31 ar
  63   29   35 ar
  64   31   32 ar
  65   31   63 1
  66   32   33 ar
  67   32   64 1
  68   33   34 ar
  69   33   65 1
  70   34   35 ar
  71   34   66 1
  72   35   67 1
  73   36   68 1
  74   36   69 1
  75   36   70 1

#	End of record

