#	Name: ASD03092540
#	Creating user name:	WinNT
#	Creation time:	15. 06. 2019 20:32

#	Modifying user name:	WinNT
#	Modification time:	15. 06. 2019 20:32

#	Program:	/corina/corina34_cracker 3.40 0067  02.08.2006

@<TRIPOS>MOLECULE
ASD03092540
  35   37    0    0    0
SMALL
NO_CHARGES


@<TRIPOS>ATOM
   1 S1            -0.0211     1.7053     0.0114 S.3     
   2 C2             0.0021    -0.0041     0.0020 C.2     
   3 N3             1.2212    -0.4385    -0.0120 N.2     
   4 C4             2.1785     0.4550    -0.0163 C.2     
   5 C5             1.7406     1.7389    -0.0052 C.2     
   6 C6             2.5827     2.9399    -0.0072 C.2     
   7 O7             3.7948     2.8331    -0.0198 O.2     
   8 N8             2.0140     4.1618     0.0048 N.am    
   9 C9             2.8551     5.3613     0.0028 C.3     
  10 N10           -0.4062     9.9419     0.3324 N.pl3   
  11 C11           -0.4907    10.0720     1.6918 C.2     
  12 C12            0.2086     9.0943     2.2894 C.2     
  13 C13            0.7883     8.2708     1.2256 C.ar    
  14 C14            1.5986     7.1337     1.2109 C.ar    
  15 C15            1.9802     6.5882     0.0179 C.ar    
  16 C16            1.5689     7.1555    -1.1807 C.ar    
  17 C17            0.7699     8.2775    -1.1892 C.ar    
  18 C18            0.3693     8.8497     0.0140 C.ar    
  19 C19           -1.2552    11.1530     2.4116 C.3     
  20 C20           -1.2235    -0.8810     0.0098 C.3     
  21 H21            3.2260     0.1924    -0.0274 H       
  22 H22            1.0478     4.2469     0.0148 H       
  23 H23            3.4932     5.3591     0.8865 H       
  24 H24            3.4756     5.3685    -0.8934 H       
  25 H25           -0.8325    10.5293    -0.3112 H       
  26 H26            0.3222     8.9434     3.3528 H       
  27 H27            1.9231     6.6875     2.1394 H       
  28 H28            1.8789     6.7128    -2.1157 H       
  29 H29            0.4555     8.7116    -2.1268 H       
  30 H30           -2.2769    10.8179     2.5904 H       
  31 H31           -0.7712    11.3674     3.3644 H       
  32 H32           -1.2706    12.0555     1.8006 H       
  33 H33           -1.5294    -1.0869    -1.0159 H       
  34 H34           -0.9959    -1.8189     0.5163 H       
  35 H35           -2.0316    -0.3714     0.5346 H       
@<TRIPOS>BOND
   1    1    2 1
   2    1    5 1
   3    2    3 2
   4    2   20 1
   5    3    4 1
   6    4    5 2
   7    4   21 1
   8    5    6 1
   9    6    7 2
  10    6    8 am
  11    8    9 1
  12    8   22 1
  13    9   15 1
  14    9   23 1
  15    9   24 1
  16   10   11 1
  17   10   18 1
  18   10   25 1
  19   11   12 2
  20   11   19 1
  21   12   13 1
  22   12   26 1
  23   13   14 ar
  24   13   18 ar
  25   14   15 ar
  26   14   27 1
  27   15   16 ar
  28   16   17 ar
  29   16   28 1
  30   17   18 ar
  31   17   29 1
  32   19   30 1
  33   19   31 1
  34   19   32 1
  35   20   33 1
  36   20   34 1
  37   20   35 1

#	End of record

