#	Name: ASD03498001
#	Creating user name:	WinNT
#	Creation time:	15. 06. 2019 20:42

#	Modifying user name:	WinNT
#	Modification time:	15. 06. 2019 20:42

#	Program:	/corina/corina34_cracker 3.40 0067  02.08.2006

@<TRIPOS>MOLECULE
ASD03498001
  31   33    0    0    0
SMALL
NO_CHARGES


@<TRIPOS>ATOM
   1 C1            -0.2044     1.4708    -0.5956 C.2     
   2 C2            -0.2358     0.0868    -0.7728 C.2     
   3 C3             0.9712    -0.6308    -0.9021 C.2     
   4 C4             2.1509     0.0449    -0.8511 C.2     
   5 C5             2.1530     1.4399    -0.6716 C.2     
   6 N6             0.9992     2.1223    -0.5485 N.am    
   7 N7            -2.3508     0.7961    -0.6079 N.2     
   8 N8            -1.4894     1.8918    -0.4967 N.pl3   
   9 C9            -1.6492    -0.2997    -0.7794 C.2     
  10 O10            3.2145     2.0393    -0.6264 O.2     
  11 C11           -2.1857    -1.6724    -0.9397 C.ar    
  12 C12           -3.1283    -1.9441    -1.9305 C.ar    
  13 C13           -3.6237    -3.2237    -2.0754 C.ar    
  14 C14           -3.1870    -4.2362    -1.2397 C.ar    
  15 C15           -2.2521    -3.9726    -0.2551 C.ar    
  16 C16           -1.7455    -2.6976    -0.1043 C.ar    
  17 C17           -4.6429    -3.5188    -3.1455 C.3     
  18 F18           -3.9873    -3.8902    -4.3242 F       
  19 F19           -5.4723    -4.5638    -2.7241 F       
  20 F20           -5.4154    -2.3766    -3.3815 F       
  21 C21            0.9546    -2.1255    -1.0935 C.3     
  22 F22            2.1587    -2.5343    -1.6769 F       
  23 F23            0.8011    -2.7529     0.1475 F       
  24 F24           -0.1112    -2.4769    -1.9287 F       
  25 H25            3.0845    -0.4892    -0.9480 H       
  26 H26            1.0206     3.0843    -0.4256 H       
  27 H27           -1.7683     2.8119    -0.3681 H       
  28 H28           -3.4702    -1.1544    -2.5832 H       
  29 H29           -3.5778    -5.2362    -1.3566 H       
  30 H30           -1.9150    -4.7668     0.3945 H       
  31 H31           -1.0122    -2.4939     0.6620 H       
@<TRIPOS>BOND
   1    1    2 2
   2    1    6 1
   3    1    8 1
   4    2    3 1
   5    2    9 1
   6    3    4 2
   7    3   21 1
   8    4    5 1
   9    4   25 1
  10    5    6 am
  11    5   10 2
  12    6   26 1
  13    7    8 1
  14    7    9 2
  15    8   27 1
  16    9   11 1
  17   11   12 ar
  18   11   16 ar
  19   12   13 ar
  20   12   28 1
  21   13   14 ar
  22   13   17 1
  23   14   15 ar
  24   14   29 1
  25   15   16 ar
  26   15   30 1
  27   16   31 1
  28   17   18 1
  29   17   19 1
  30   17   20 1
  31   21   22 1
  32   21   23 1
  33   21   24 1

#	End of record

