#	Name: ASD01148507
#	Creating user name:	WinNT
#	Creation time:	15. 06. 2019 19:02

#	Modifying user name:	WinNT
#	Modification time:	15. 06. 2019 19:02

#	Program:	/corina/corina34_cracker 3.40 0067  02.08.2006

@<TRIPOS>MOLECULE
ASD01148507
  55   59    0    0    0
SMALL
NO_CHARGES


@<TRIPOS>ATOM
   1 C1            -0.0180     1.4346     0.0450 C.ar    
   2 C2            -0.0166     0.0527     0.0405 C.ar    
   3 C3             1.1824    -0.6376     0.0176 C.ar    
   4 C4             2.3790     0.0562    -0.0007 C.ar    
   5 C5             2.3764     1.4385     0.0038 C.ar    
   6 C6             1.1784     2.1275     0.0267 C.ar    
   7 C7             3.6799     2.1944    -0.0161 C.3     
   8 O8             4.6902     1.4619    -0.7387 O.3     
   9 C9             3.5592     3.4841    -0.8626 C.3     
  10 C10            4.0456     3.0305    -2.2259 C.2     
  11 N11            4.6593     1.9023    -2.0819 N.2     
  12 C12            3.8513     3.7514    -3.4956 C.ar    
  13 C13            4.3743     3.1985    -4.7425 C.ar    
  14 C14            3.1649     4.9576    -3.5160 C.ar    
  15 C15            2.9674     5.6557    -4.6942 C.ar    
  16 C16            3.4470     5.1798    -5.9066 C.ar    
  17 C17            4.1724     3.9124    -5.9474 C.ar    
  18 C18            3.2211     5.9457    -7.1460 C.2     
  19 O19            3.7326     5.5816    -8.1875 O.2     
  20 N20            2.4478     7.0492    -7.1247 N.am    
  21 C21            4.1465     2.5134     1.4056 C.3     
  22 F22            4.3126     1.3222     2.1202 F       
  23 F23            5.3644     3.1999     1.3538 F       
  24 F24            3.1890     3.3098     2.0430 F       
  25 Cl25           1.1850    -2.3736     0.0125 Cl      
  26 C26            2.2233     7.8103    -8.3562 C.3     
  27 C27            1.3306     8.9885    -8.0630 C.ar    
  28 N28            0.0214     8.8313    -8.0679 N.ar    
  29 C29           -0.7983     9.8334    -7.8171 C.ar    
  30 C30           -0.3080    11.0949    -7.5383 C.ar    
  31 C31            1.0635    11.2989    -7.5241 C.ar    
  32 C32            1.8937    10.2202    -7.7865 C.ar    
  33 C33            5.0679     1.9819    -4.7701 C.ar    
  34 C34            4.6735     3.3939    -7.1481 C.ar    
  35 C35            5.5387     1.5021    -5.9561 C.ar    
  36 C36            5.3444     2.2071    -7.1410 C.ar    
  37 H37           -0.9538     1.9735     0.0584 H       
  38 H38           -0.9512    -0.4884     0.0552 H       
  39 H39            3.3152    -0.4821    -0.0182 H       
  40 H40            1.1768     3.2075     0.0302 H       
  41 H41            2.5229     3.8182    -0.9130 H       
  42 H42            4.2013     4.2698    -0.4644 H       
  43 H43            2.7763     5.3600    -2.5921 H       
  44 H44            2.4280     6.5910    -4.6700 H       
  45 H45            2.0398     7.3396    -6.2940 H       
  46 H46            3.1784     8.1655    -8.7430 H       
  47 H47            1.7468     7.1691    -9.0978 H       
  48 H48           -1.8653     9.6663    -7.8300 H       
  49 H49           -0.9845    11.9117    -7.3343 H       
  50 H50            1.4752    12.2741    -7.3097 H       
  51 H51            2.9668    10.3425    -7.7835 H       
  52 H52            5.2289     1.4275    -3.8574 H       
  53 H53            4.5291     3.9308    -8.0740 H       
  54 H54            6.0733     0.5639    -5.9763 H       
  55 H55            5.7304     1.8081    -8.0673 H       
@<TRIPOS>BOND
   1    1    2 ar
   2    1    6 ar
   3    1   37 1
   4    2    3 ar
   5    2   38 1
   6    3    4 ar
   7    3   25 1
   8    4    5 ar
   9    4   39 1
  10    5    6 ar
  11    5    7 1
  12    6   40 1
  13    7    8 1
  14    7    9 1
  15    7   21 1
  16    8   11 1
  17    9   10 1
  18    9   41 1
  19    9   42 1
  20   10   11 2
  21   10   12 1
  22   12   13 ar
  23   12   14 ar
  24   13   33 ar
  25   13   17 ar
  26   14   15 ar
  27   14   43 1
  28   15   16 ar
  29   15   44 1
  30   16   17 ar
  31   16   18 1
  32   17   34 ar
  33   18   19 2
  34   18   20 am
  35   20   26 1
  36   20   45 1
  37   21   22 1
  38   21   23 1
  39   21   24 1
  40   26   27 1
  41   26   46 1
  42   26   47 1
  43   27   28 ar
  44   27   32 ar
  45   28   29 ar
  46   29   30 ar
  47   29   48 1
  48   30   31 ar
  49   30   49 1
  50   31   32 ar
  51   31   50 1
  52   32   51 1
  53   33   35 ar
  54   33   52 1
  55   34   36 ar
  56   34   53 1
  57   35   36 ar
  58   35   54 1
  59   36   55 1

#	End of record

