#	Name: ASD02039412
#	Creating user name:	WinNT
#	Creation time:	15. 06. 2019 20:18

#	Modifying user name:	WinNT
#	Modification time:	15. 06. 2019 20:18

#	Program:	/corina/corina34_cracker 3.40 0067  02.08.2006

@<TRIPOS>MOLECULE
ASD02039412
  55   58    0    0    0
SMALL
NO_CHARGES


@<TRIPOS>ATOM
   1 C1             0.0577     0.6843    -0.4433 C.ar    
   2 C2             0.4875    -0.6337    -0.5021 C.ar    
   3 C3             1.0375     1.8042    -0.2051 C.3     
   4 N4             1.5456     2.2901    -1.4904 N.am    
   5 C5             0.8517     3.3744    -2.1897 C.3     
   6 C6             2.6513     1.7395    -2.0295 C.2     
   7 C7             3.1145     2.1697    -3.3603 C.2     
   8 C8             4.1458     1.6269    -4.0695 C.2     
   9 N9             2.5892     3.1746    -4.1067 N.2     
  10 C10            3.2554     3.2636    -5.2214 C.2     
  11 N11            4.2298     2.3170    -5.2312 N.pl3   
  12 O12            3.2668     0.8876    -1.4175 O.2     
  13 C13           -0.4361    -1.6390    -0.7225 C.ar    
  14 C14           -2.1648    -0.1134    -0.8377 C.ar    
  15 C15           -1.2905     0.9479    -0.6139 C.ar    
  16 C16           -3.6121     0.1524    -1.0230 C.ar    
  17 C17           -4.4936    -0.9037    -1.2474 C.ar    
  18 C18           -4.0955     1.4585    -0.9675 C.ar    
  19 C19           -5.4426     1.7011    -1.1400 C.ar    
  20 C20           -6.3146     0.6487    -1.3680 C.ar    
  21 C21           -5.8391    -0.6519    -1.4187 C.ar    
  22 C22            5.1982     2.0851    -6.3057 C.3     
  23 C23            1.5385     4.7052    -1.8761 C.3     
  24 N24           -1.7145    -1.3610    -0.8771 N.ar    
  25 F25           -7.6331     0.8907    -1.5359 F       
  26 C26            0.8935     5.8220    -2.7026 C.3     
  27 C27            1.5333     7.1605    -2.3246 C.3     
  28 O28            1.3732     7.3843    -0.9223 O.3     
  29 C29            1.9967     6.3967    -0.0989 C.3     
  30 C30            1.3756     5.0276    -0.3875 C.3     
  31 H31            1.5334    -0.8721    -0.3773 H       
  32 H32            0.5379     2.6187     0.3194 H       
  33 H33            1.8678     1.4382     0.3989 H       
  34 H34            0.8841     3.1932    -3.2640 H       
  35 H35           -0.1861     3.4144    -1.8591 H       
  36 H36            4.7749     0.8044    -3.7629 H       
  37 H37            3.0627     3.9734    -6.0123 H       
  38 H38           -0.1048    -2.6659    -0.7689 H       
  39 H39           -1.6583     1.9629    -0.5817 H       
  40 H40           -4.1238    -1.9176    -1.2874 H       
  41 H41           -3.4167     2.2794    -0.7895 H       
  42 H42           -5.8181     2.7128    -1.0968 H       
  43 H43           -6.5222    -1.4692    -1.5971 H       
  44 H44            6.0871     2.6912    -6.1308 H       
  45 H45            5.4750     1.0310    -6.3241 H       
  46 H46            4.7530     2.3605    -7.2618 H       
  47 H47            2.5982     4.6354    -2.1215 H       
  48 H48            1.0531     5.6287    -3.7634 H       
  49 H49           -0.1759     5.8578    -2.4947 H       
  50 H50            2.5950     7.1382    -2.5702 H       
  51 H51            1.0486     7.9643    -2.8787 H       
  52 H52            3.0645     6.3644    -0.3154 H       
  53 H53            1.8460     6.6504     0.9504 H       
  54 H54            0.3160     5.0473    -0.1329 H       
  55 H55            1.8800     4.2661     0.2074 H       
@<TRIPOS>BOND
   1    1    2 ar
   2    1    3 1
   3    1   15 ar
   4    2   13 ar
   5    2   31 1
   6    3    4 1
   7    3   32 1
   8    3   33 1
   9    4    5 1
  10    4    6 am
  11    5   23 1
  12    5   34 1
  13    5   35 1
  14    6    7 1
  15    6   12 2
  16    7    8 2
  17    7    9 1
  18    8   11 1
  19    8   36 1
  20    9   10 2
  21   10   11 1
  22   10   37 1
  23   11   22 1
  24   13   24 ar
  25   13   38 1
  26   14   15 ar
  27   14   16 1
  28   14   24 ar
  29   15   39 1
  30   16   17 ar
  31   16   18 ar
  32   17   21 ar
  33   17   40 1
  34   18   19 ar
  35   18   41 1
  36   19   20 ar
  37   19   42 1
  38   20   21 ar
  39   20   25 1
  40   21   43 1
  41   22   44 1
  42   22   45 1
  43   22   46 1
  44   23   26 1
  45   23   30 1
  46   23   47 1
  47   26   27 1
  48   26   48 1
  49   26   49 1
  50   27   28 1
  51   27   50 1
  52   27   51 1
  53   28   29 1
  54   29   30 1
  55   29   52 1
  56   29   53 1
  57   30   54 1
  58   30   55 1

#	End of record

