#	Name: ASD04910075
#	Creating user name:	WinNT
#	Creation time:	15. 06. 2019 20:55

#	Modifying user name:	WinNT
#	Modification time:	15. 06. 2019 20:55

#	Program:	/corina/corina34_cracker 3.40 0067  02.08.2006

@<TRIPOS>MOLECULE
ASD04910075
  29   30    0    0    0
SMALL
NO_CHARGES


@<TRIPOS>ATOM
   1 C1            -0.0180     1.4730     0.0101 C.2     
   2 C2             0.0021    -0.0041     0.0020 C.ar    
   3 C3             1.2188    -0.6888    -0.0133 C.ar    
   4 C4             1.2303    -2.0682    -0.0203 C.ar    
   5 C5             0.0396    -2.7731    -0.0127 C.ar    
   6 C6            -1.1697    -2.1009     0.0020 C.ar    
   7 C7            -1.1956    -0.7217     0.0154 C.ar    
   8 O8             1.0256     2.0946     0.0035 O.2     
   9 O9            -1.1936     2.1307     0.0193 O.3     
  10 C10            0.0601    -4.2800    -0.0210 C.3     
  11 O11           -1.0296    -4.7754     0.7596 O.3     
  12 C12           -0.0724    -4.7839    -1.4595 C.3     
  13 C13           -0.0726    -6.2979    -1.6805 C.3     
  14 C14           -1.3691    -5.5014    -1.8401 C.3     
  15 C15           -1.1373     3.5816     0.0269 C.3     
  16 H16            2.1488    -0.1398    -0.0199 H       
  17 H17            2.1707    -2.5992    -0.0321 H       
  18 H18           -2.0953    -2.6572     0.0071 H       
  19 H19           -2.1401    -0.1983     0.0318 H       
  20 H20            1.0004    -4.6329     0.4025 H       
  21 H21           -1.8996    -4.5001     0.4398 H       
  22 H22            0.4022    -4.1643    -2.2203 H       
  23 H23            0.4017    -6.6743    -2.5868 H       
  24 H24            0.0218    -6.9349    -0.8010 H       
  25 H25           -2.1277    -5.6144    -1.0656 H       
  26 H26           -1.7478    -5.3538    -2.8514 H       
  27 H27           -0.6055     3.9199     0.9162 H       
  28 H28           -0.6140     3.9295    -0.8637 H       
  29 H29           -2.1501     3.9844     0.0339 H       
@<TRIPOS>BOND
   1    1    2 1
   2    1    8 2
   3    1    9 1
   4    2    3 ar
   5    2    7 ar
   6    3    4 ar
   7    3   16 1
   8    4    5 ar
   9    4   17 1
  10    5    6 ar
  11    5   10 1
  12    6    7 ar
  13    6   18 1
  14    7   19 1
  15    9   15 1
  16   10   11 1
  17   10   12 1
  18   10   20 1
  19   11   21 1
  20   12   13 1
  21   12   14 1
  22   12   22 1
  23   13   14 1
  24   13   23 1
  25   13   24 1
  26   14   25 1
  27   14   26 1
  28   15   27 1
  29   15   28 1
  30   15   29 1

#	End of record

