#	Name: ASD02500150
#	Creating user name:	WinNT
#	Creation time:	15. 06. 2019 20:22

#	Modifying user name:	WinNT
#	Modification time:	15. 06. 2019 20:22

#	Program:	/corina/corina34_cracker 3.40 0067  02.08.2006

@<TRIPOS>MOLECULE
ASD02500150
  66   70    0    0    0
SMALL
NO_CHARGES


@<TRIPOS>ATOM
   1 N1            -1.7849     0.7127    -1.1865 N.am    
   2 C2            -1.1891    -0.5295    -1.6982 C.3     
   3 C3             0.0820    -0.1773    -2.4808 C.3     
   4 N4             0.9075     0.7175    -1.6576 N.am    
   5 C5             0.3118     1.9597    -1.1459 C.3     
   6 C6            -0.9593     1.6075    -0.3633 C.3     
   7 C7            -3.0637     1.0284    -1.4718 C.2     
   8 O8            -3.5696     2.0189    -0.9803 O.2     
   9 N9            -3.7819     0.2462    -2.3018 N.am    
  10 C10            2.1879     0.4043    -1.3766 C.2     
  11 C11            3.0332     1.3554    -0.6303 C.ar    
  12 C12            3.9863     0.8831     0.2768 C.ar    
  13 C13            4.7732     1.7729     0.9715 C.ar    
  14 C14            4.6211     3.1422     0.7717 C.ar    
  15 C15            3.6725     3.6158    -0.1306 C.ar    
  16 C16            2.8868     2.7308    -0.8329 C.ar    
  17 O17            2.6463    -0.6624    -1.7382 O.2     
  18 S18            6.1756     5.2759     0.6768 S.o2    
  19 O19            5.1830     5.9060    -0.1214 O.2     
  20 O20            6.9460     5.9687     1.6493 O.2     
  21 N21            5.4178     4.0388     1.4752 N.am    
  22 N22            8.7092     3.8138     1.3603 N.ar    
  23 C23            9.7750     3.2065     1.8224 C.ar    
  24 C24           10.7097     2.6181     0.9731 C.ar    
  25 C25           10.5265     2.6654    -0.3795 C.ar    
  26 C26            9.3806     3.3180    -0.8721 C.ar    
  27 C27            9.1253     3.4071    -2.2497 C.ar    
  28 C28            8.0056     4.0472    -2.6866 C.ar    
  29 C29            7.1086     4.6146    -1.7843 C.ar    
  30 C30            7.3254     4.5476    -0.4423 C.ar    
  31 C31            8.4702     3.8956     0.0476 C.ar    
  32 C32           -5.1171     0.5647    -2.5845 C.ar    
  33 C33           -6.0435    -0.4482    -2.7930 C.ar    
  34 C34           -7.3591    -0.1337    -3.0711 C.ar    
  35 C35           -7.7551     1.1938    -3.1420 C.ar    
  36 C36           -6.8301     2.2063    -2.9338 C.ar    
  37 C37           -5.5153     1.8931    -2.6505 C.ar    
  38 O38           -9.0506     1.5028    -3.4163 O.3     
  39 C39           -9.3884     2.8901    -3.4742 C.3     
  40 H40           -0.9357    -1.1842    -0.8644 H       
  41 H41           -1.8978    -1.0305    -2.3577 H       
  42 H42            0.6389    -1.0876    -2.7029 H       
  43 H43           -0.1878     0.3253    -3.4097 H       
  44 H44            1.0204     2.4607    -0.4864 H       
  45 H45            0.0584     2.6144    -1.9797 H       
  46 H46           -1.5162     2.5178    -0.1412 H       
  47 H47           -0.6896     1.1049     0.5655 H       
  48 H48           -3.3746    -0.5371    -2.7035 H       
  49 H49            4.1046    -0.1791     0.4325 H       
  50 H50            5.5095     1.4086     1.6727 H       
  51 H51            3.5563     4.6787    -0.2829 H       
  52 H52            2.1547     3.0987    -1.5366 H       
  53 H53            5.5297     3.9395     2.4336 H       
  54 H54            9.9329     3.1614     2.8899 H       
  55 H55           11.5786     2.1254     1.3839 H       
  56 H56           11.2411     2.2149    -1.0525 H       
  57 H57            9.8132     2.9708    -2.9589 H       
  58 H58            7.8100     4.1152    -3.7466 H       
  59 H59            6.2280     5.1176    -2.1557 H       
  60 H60           -5.7352    -1.4818    -2.7381 H       
  61 H61           -8.0798    -0.9215    -3.2336 H       
  62 H62           -7.1389     3.2397    -2.9895 H       
  63 H63           -4.7960     2.6814    -2.4840 H       
  64 H64           -8.8004     3.3751    -4.2534 H       
  65 H65          -10.4494     2.9966    -3.7003 H       
  66 H66           -9.1732     3.3569    -2.5130 H       
@<TRIPOS>BOND
   1    1    2 1
   2    1    6 1
   3    1    7 am
   4    2    3 1
   5    2   40 1
   6    2   41 1
   7    3    4 1
   8    3   42 1
   9    3   43 1
  10    4    5 1
  11    4   10 am
  12    5    6 1
  13    5   44 1
  14    5   45 1
  15    6   46 1
  16    6   47 1
  17    7    8 2
  18    7    9 am
  19    9   32 1
  20    9   48 1
  21   10   11 1
  22   10   17 2
  23   11   12 ar
  24   11   16 ar
  25   12   13 ar
  26   12   49 1
  27   13   14 ar
  28   13   50 1
  29   14   15 ar
  30   14   21 1
  31   15   16 ar
  32   15   51 1
  33   16   52 1
  34   18   19 2
  35   18   20 2
  36   18   21 am
  37   18   30 1
  38   21   53 1
  39   22   23 ar
  40   22   31 ar
  41   23   24 ar
  42   23   54 1
  43   24   25 ar
  44   24   55 1
  45   25   26 ar
  46   25   56 1
  47   26   27 ar
  48   26   31 ar
  49   27   28 ar
  50   27   57 1
  51   28   29 ar
  52   28   58 1
  53   29   30 ar
  54   29   59 1
  55   30   31 ar
  56   32   33 ar
  57   32   37 ar
  58   33   34 ar
  59   33   60 1
  60   34   35 ar
  61   34   61 1
  62   35   36 ar
  63   35   38 1
  64   36   37 ar
  65   36   62 1
  66   37   63 1
  67   38   39 1
  68   39   64 1
  69   39   65 1
  70   39   66 1

#	End of record

