#	Name: ASD06390027
#	Creating user name:	WinNT
#	Creation time:	15. 06. 2019 21:06

#	Modifying user name:	WinNT
#	Modification time:	15. 06. 2019 21:06

#	Program:	/corina/corina34_cracker 3.40 0067  02.08.2006

@<TRIPOS>MOLECULE
ASD06390027
  59   62    0    0    0
SMALL
NO_CHARGES


@<TRIPOS>ATOM
   1 C1            -0.0167     1.3793     0.0096 C.ar    
   2 C2             0.0021    -0.0041     0.0020 C.ar    
   3 C3             1.2078    -0.6828    -0.0127 C.ar    
   4 C4             2.3998     0.0226    -0.0204 C.ar    
   5 C5             2.3812     1.4156    -0.0132 C.ar    
   6 C6             1.1690     2.0897     0.0021 C.ar    
   7 C7            -1.3328     2.1133     0.0199 C.3     
   8 C8            -2.2859     1.8711    -1.1523 C.3     
   9 C9            -1.9534     2.3362     1.4005 C.3     
  10 C10           -1.5422     3.2030    -1.0336 C.3     
  11 N11            3.5835     2.1335    -0.0204 N.pl3   
  12 C12            3.5620     3.5983    -0.0128 C.3     
  13 C13            4.9752     4.1215    -0.0229 C.2     
  14 N14            5.2020     5.4500    -0.0182 N.am    
  15 C15            4.2921     7.4219    -1.1260 C.3     
  16 C16            4.0849     6.4065     0.0029 C.3     
  17 C17            6.5733     5.9818    -0.0279 C.3     
  18 C18            6.6876     7.0130    -1.1556 C.3     
  19 N19            5.6312     8.0220    -1.0010 N.3     
  20 C20            5.8063     9.1226    -1.9581 C.3     
  21 C21            7.1398     9.8752    -1.8000 C.3     
  22 C22            6.3384     8.6717    -3.3305 C.3     
  23 N23            7.2051     9.8649    -3.2743 N.am    
  24 C24            7.8123    10.6356    -4.1983 C.2     
  25 C25            7.6588    10.3280    -5.6286 C.2     
  26 O26            8.4871    11.5853    -3.8496 O.2     
  27 C27            8.2580    11.0885    -6.5403 C.2     
  28 O28            5.9085     3.3470    -0.0352 O.2     
  29 O29            3.5857    -0.6431    -0.0344 O.3     
  30 Cl30          -1.4906    -0.8904     0.0116 Cl      
  31 H31            1.2195    -1.7627    -0.0179 H       
  32 H32            1.1517     3.1696     0.0078 H       
  33 H33           -1.9609     1.1809    -1.9308 H       
  34 H34           -3.3550     1.8710    -0.9399 H       
  35 H35           -1.1621     2.4961     2.1329 H       
  36 H36           -2.6026     3.2113     1.3701 H       
  37 H37           -2.5375     1.4601     1.6820 H       
  38 H38           -2.1221     4.0790    -0.7431 H       
  39 H39           -0.7280     3.3890    -1.7340 H       
  40 H40            4.4305     1.6609    -0.0304 H       
  41 H41            3.0349     3.9585    -0.8963 H       
  42 H42            3.0509     3.9495     0.8836 H       
  43 H43            4.2091     6.9175    -2.0887 H       
  44 H44            3.5341     8.2021    -1.0571 H       
  45 H45            3.1454     5.8755    -0.1501 H       
  46 H46            4.0642     6.9242     0.9618 H       
  47 H47            6.7876     6.4594     0.9282 H       
  48 H48            7.2797     5.1699    -0.2012 H       
  49 H49            7.6629     7.4974    -1.1081 H       
  50 H50            6.5755     6.5136    -2.1179 H       
  51 H51            4.9369     9.7775    -2.0162 H       
  52 H52            7.0336    10.8720    -1.3719 H       
  53 H53            7.9225     9.2865    -1.3214 H       
  54 H54            6.8857     7.7294    -3.3015 H       
  55 H55            5.5924     8.7075    -4.1244 H       
  56 H56            7.0595     9.4845    -5.9382 H       
  57 H57            8.8573    11.9319    -6.2307 H       
  58 H58            8.1453    10.8626    -7.5904 H       
  59 H59            3.9205    -0.8315    -0.9218 H       
@<TRIPOS>BOND
   1    1    2 ar
   2    1    6 ar
   3    1    7 1
   4    2    3 ar
   5    2   30 1
   6    3    4 ar
   7    3   31 1
   8    4    5 ar
   9    4   29 1
  10    5    6 ar
  11    5   11 1
  12    6   32 1
  13    7    8 1
  14    7    9 1
  15    7   10 1
  16    8   10 1
  17    8   33 1
  18    8   34 1
  19    9   35 1
  20    9   36 1
  21    9   37 1
  22   10   38 1
  23   10   39 1
  24   11   12 1
  25   11   40 1
  26   12   13 1
  27   12   41 1
  28   12   42 1
  29   13   14 am
  30   13   28 2
  31   14   17 1
  32   14   16 1
  33   15   16 1
  34   15   19 1
  35   15   43 1
  36   15   44 1
  37   16   45 1
  38   16   46 1
  39   17   18 1
  40   17   47 1
  41   17   48 1
  42   18   19 1
  43   18   49 1
  44   18   50 1
  45   19   20 1
  46   20   21 1
  47   20   22 1
  48   20   51 1
  49   21   23 1
  50   21   52 1
  51   21   53 1
  52   22   23 1
  53   22   54 1
  54   22   55 1
  55   23   24 am
  56   24   25 1
  57   24   26 2
  58   25   27 2
  59   25   56 1
  60   27   57 1
  61   27   58 1
  62   29   59 1

#	End of record

