#	Name: ASD00731002
#	Creating user name:	WinNT
#	Creation time:	15. 06. 2019 18:37

#	Modifying user name:	WinNT
#	Modification time:	15. 06. 2019 18:37

#	Program:	/corina/corina34_cracker 3.40 0067  02.08.2006

@<TRIPOS>MOLECULE
ASD00731002
 248  248    0    0    0
SMALL
NO_CHARGES


@<TRIPOS>ATOM
   1 C1            -0.5722    -9.1401     1.3893 C.2     
   2 O2            -0.9103   -10.3016     1.4761 O.2     
   3 N3             1.7052    -9.9112     1.7409 N.3     
   4 C4             0.8876    -8.7876     1.2644 C.3     
   5 C5             1.2195    -8.5010    -0.2014 C.3     
   6 C6             2.6686    -8.0228    -0.3122 C.3     
   7 C7             3.0005    -7.7362    -1.7780 C.3     
   8 N8             4.3881    -7.2783    -1.8840 N.pl3   
   9 C9             4.9142    -6.9585    -3.1128 C.2     
  10 N10            4.2196    -7.1701    -4.1934 N.2     
  11 N11            6.1803    -6.4126    -3.2013 N.am    
  12 C12           -3.7554    -7.4085     0.9076 C.2     
  13 O13           -3.2166    -6.4344     0.4264 O.2     
  14 N14           -1.5025    -8.1649     1.3989 N.am    
  15 C15           -2.9221    -8.5080     1.5142 C.3     
  16 C16           -3.2891    -8.6707     2.9906 C.3     
  17 O17           -3.1483    -7.4148     3.6577 O.3     
  18 C18           -7.2825    -6.4484     0.9316 C.2     
  19 O19           -7.5573    -7.2672     1.7830 O.2     
  20 N20           -5.0995    -7.5078     0.9000 N.am    
  21 C21           -5.9096    -6.4391     0.3103 C.3     
  22 C22           -6.0309    -6.6642    -1.1982 C.3     
  23 C23           -6.7000    -8.0149    -1.4601 C.3     
  24 C24           -6.9344    -8.1852    -2.9624 C.3     
  25 C25           -4.6370    -6.6547    -1.8289 C.3     
  26 C26          -10.5279    -4.9385     0.1891 C.2     
  27 O27          -10.1540    -4.5310    -0.8903 O.2     
  28 N28           -8.2051    -5.5468     0.5410 N.am    
  29 C29           -9.5398    -5.5559     1.1449 C.3     
  30 C30           -9.5166    -4.7502     2.4454 C.3     
  31 C31           -8.6082    -5.4467     3.4606 C.3     
  32 C32           -8.5849    -4.6410     4.7611 C.3     
  33 N33           -7.7151    -5.3079     5.7332 N.pl3   
  34 C34           -7.5378    -4.7642     6.9835 C.2     
  35 N35           -8.1435    -3.6554     7.3039 N.2     
  36 N36           -6.7215    -5.3900     7.8957 N.pl3   
  37 C37          -13.9576    -3.6880     0.3781 C.2     
  38 O38          -13.9864    -3.7869     1.5866 O.2     
  39 N39          -11.8270    -4.8391     0.5338 N.am    
  40 C40          -12.7875    -4.2390    -0.3954 C.3     
  41 C41          -13.2810    -5.3037    -1.3771 C.3     
  42 O42          -14.0157    -6.3026    -0.6668 O.3     
  43 C43          -17.3233    -2.5009    -0.4131 C.2     
  44 O44          -17.2458    -2.8765    -1.5636 O.2     
  45 N45          -14.9722    -3.0853    -0.2730 N.am    
  46 C46          -16.1097    -2.5496     0.4790 C.3     
  47 C47          -15.7788    -1.1380     0.9676 C.3     
  48 C48          -14.6251    -1.2028     1.9704 C.3     
  49 C49          -14.2115     0.2166     2.3644 C.3     
  50 C50          -15.0751    -1.9674     3.2168 C.3     
  51 C51          -20.6248    -0.9355    -0.2978 C.2     
  52 O52          -20.3439    -0.2858     0.6871 O.2     
  53 N53          -18.4949    -2.0398     0.0678 N.am    
  54 C54          -19.6748    -1.9923    -0.7994 C.3     
  55 C55          -20.3730    -3.3537    -0.7855 C.3     
  56 C56          -19.4534    -4.4048    -1.4103 C.3     
  57 C57          -20.1516    -5.7662    -1.3965 C.3     
  58 N58          -19.2711    -6.7727    -1.9948 N.pl3   
  59 C59          -19.6872    -8.0794    -2.0921 C.2     
  60 N60          -18.9038    -8.9749    -2.6244 N.2     
  61 N61          -20.9296    -8.4416    -1.6281 N.pl3   
  62 C62          -23.6148    -0.1059     0.5324 C.2     
  63 O63          -23.5718    -1.2617     0.8974 O.2     
  64 N64          -21.7864    -0.7122    -0.9436 N.am    
  65 C65          -22.6588     0.3871    -0.5231 C.3     
  66 C66          -23.4497     0.9001    -1.7281 C.3     
  67 C67          -22.4970     1.4585    -2.7535 C.2     
  68 O68          -21.2998     1.3692    -2.5810 O.2     
  69 N69          -22.9753     2.0572    -3.8623 N.am    
  70 C70          -26.6848     1.1181     2.0945 C.2     
  71 O71          -26.7810     2.0404     1.3128 O.2     
  72 N72          -24.5178     0.7375     1.0707 N.am    
  73 C73          -25.4472     0.2583     2.0967 C.3     
  74 C74          -24.7754     0.3349     3.4692 C.3     
  75 C75          -24.3895     1.7850     3.7679 C.3     
  76 C76          -23.8319     1.8819     5.1894 C.3     
  77 C77          -23.5189    -0.5380     3.4715 C.3     
  78 C78          -29.5309     1.5833     4.3614 C.2     
  79 O79          -29.2730     0.6229     5.0556 O.2     
  80 N80          -27.6847     0.8621     2.9611 N.am    
  81 C81          -28.8385     1.7619     3.0348 C.3     
  82 C82          -29.8138     1.4344     1.9023 C.3     
  83 C83          -31.0361     2.3494     2.0013 C.3     
  84 C84          -30.6047     3.8016     1.7874 C.3     
  85 C85          -30.2585    -0.0250     2.0183 C.3     
  86 C86          -32.3412     1.4126     5.8246 C.2     
  87 O87          -32.5842     0.9896     4.7192 O.2     
  88 N88          -30.4367     2.4910     4.7763 N.am    
  89 C89          -31.1404     2.2958     6.0463 C.3     
  90 C90          -31.5975     3.6511     6.5897 C.3     
  91 C91          -30.3916     4.4897     6.9269 C.2     
  92 C92          -30.1327     5.7266     6.4615 C.2     
  93 N93          -28.9442     6.1178     7.0165 N.pl3   
  94 C94          -28.5179     5.1055     7.8023 C.2     
  95 N95          -29.3911     4.1372     7.7477 N.2     
  96 O96          -33.1408     1.0958     6.8552 O.3     
  97 C97            6.8494    -6.0772    -2.0805 C.2     
  98 O98            6.3759    -6.3299    -0.9932 O.2     
  99 C99           21.4693     1.3773     6.9680 C.3     
 100 C100          20.1123     0.6777     7.0676 C.3     
 101 C101          19.5717     0.4108     5.6614 C.3     
 102 C102          18.2146    -0.2888     5.7609 C.3     
 103 C103          17.6741    -0.5557     4.3547 C.3     
 104 C104          16.3170    -1.2553     4.4543 C.3     
 105 C105          15.7765    -1.5222     3.0481 C.3     
 106 C106          14.4194    -2.2218     3.1476 C.3     
 107 C107          13.8788    -2.4887     1.7414 C.3     
 108 C108          12.5218    -3.1883     1.8410 C.3     
 109 C109          11.9812    -3.4552     0.4348 C.3     
 110 C110          10.6242    -4.1547     0.5343 C.3     
 111 C111          10.0836    -4.4217    -0.8719 C.3     
 112 C112           8.7266    -5.1212    -0.7723 C.3     
 113 C113           8.1860    -5.3882    -2.1785 C.3     
 114 H114           1.5260   -10.7438     1.1998 H       
 115 H115           2.6862    -9.6757     1.7278 H       
 116 H116           1.1005    -7.9031     1.8648 H       
 117 H117           1.0914    -9.4110    -0.7876 H       
 118 H118           0.5517    -7.7276    -0.5807 H       
 119 H119           2.7967    -7.1128     0.2740 H       
 120 H120           3.3365    -8.7963     0.0671 H       
 121 H121           2.8724    -8.6462    -2.3642 H       
 122 H122           2.3327    -6.9627    -2.1572 H       
 123 H123           4.9354    -7.2007    -1.0870 H       
 124 H124           4.5599    -6.8783    -5.0536 H       
 125 H125           6.5876    -6.2708    -4.0701 H       
 126 H126          -1.2321    -7.2360     1.3294 H       
 127 H127          -3.1141    -9.4424     0.9869 H       
 128 H128          -4.3210    -9.0121     3.0729 H       
 129 H129          -2.6262    -9.4032     3.4512 H       
 130 H130          -3.3651    -7.4433     4.5996 H       
 131 H131          -5.5305    -8.2869     1.2848 H       
 132 H132          -5.4329    -5.4768     0.4969 H       
 133 H133          -6.6336    -5.8690    -1.6369 H       
 134 H134          -6.0545    -8.8160    -1.1000 H       
 135 H135          -7.6552    -8.0548    -0.9365 H       
 136 H136          -5.9792    -8.1453    -3.4860 H       
 137 H137          -7.4111    -9.1475    -3.1490 H       
 138 H138          -7.5798    -7.3841    -3.3226 H       
 139 H139          -4.0342    -7.4499    -1.3902 H       
 140 H140          -4.7234    -6.8151    -2.9036 H       
 141 H141          -4.1603    -5.6924    -1.6423 H       
 142 H142          -7.9853    -4.8920    -0.1400 H       
 143 H143          -9.8347    -6.5831     1.3591 H       
 144 H144          -9.1368    -3.7483     2.2454 H       
 145 H145         -10.5269    -4.6821     2.8487 H       
 146 H146          -8.9879    -6.4486     3.6607 H       
 147 H147          -7.5978    -5.5149     3.0574 H       
 148 H148          -8.2052    -3.6391     4.5611 H       
 149 H149          -9.5953    -4.5729     5.1644 H       
 150 H150          -7.2644    -6.1330     5.4948 H       
 151 H151          -8.0183    -3.2718     8.1860 H       
 152 H152          -6.2707    -6.2151     7.6573 H       
 153 H153          -6.5963    -5.0064     8.7778 H       
 154 H154         -12.1260    -5.1650     1.3971 H       
 155 H155         -12.3043    -3.4324    -0.9468 H       
 156 H156         -13.9265    -4.8393    -2.1226 H       
 157 H157         -12.4267    -5.7647    -1.8728 H       
 158 H158         -14.3595    -7.0112    -1.2277 H       
 159 H159         -14.9492    -3.0062    -1.2395 H       
 160 H160         -16.3139    -3.1921     1.3355 H       
 161 H161         -15.4883    -0.5186     0.1190 H       
 162 H162         -16.6555    -0.7056     1.4498 H       
 163 H163         -13.7771    -1.7154     1.5161 H       
 164 H164         -15.0595     0.7292     2.8187 H       
 165 H165         -13.3896     0.1704     3.0788 H       
 166 H166         -13.8909     0.7614     1.4764 H       
 167 H167         -15.9230    -1.4549     3.6711 H       
 168 H168         -15.3697    -2.9786     2.9361 H       
 169 H169         -14.2532    -2.0136     3.9313 H       
 170 H170         -18.5570    -1.7393     0.9880 H       
 171 H171         -19.3681    -1.7516    -1.8173 H       
 172 H172         -20.6003    -3.6349     0.2427 H       
 173 H173         -21.2981    -3.2934    -1.3588 H       
 174 H174         -19.2260    -4.1236    -2.4386 H       
 175 H175         -18.5283    -4.4651    -0.8371 H       
 176 H176         -20.3789    -6.0474    -0.3682 H       
 177 H177         -21.0767    -5.7059    -1.9697 H       
 178 H178         -18.3945    -6.5171    -2.3222 H       
 179 H179         -19.1974    -9.8968    -2.6931 H       
 180 H180         -21.5126    -7.7751    -1.2319 H       
 181 H181         -21.2232    -9.3635    -1.6968 H       
 182 H182         -22.0449    -1.2794    -1.6868 H       
 183 H183         -22.0529     1.1961    -0.1151 H       
 184 H184         -24.0159     0.0787    -2.1675 H       
 185 H185         -24.1362     1.6829    -1.4056 H       
 186 H186         -23.9328     2.1286    -4.0002 H       
 187 H187         -22.3620     2.4166    -4.5223 H       
 188 H188         -24.5522     1.6619     0.7788 H       
 189 H189         -25.7221    -0.7748     1.8839 H       
 190 H190         -25.4669    -0.0217     4.2326 H       
 191 H191         -23.6312     2.1130     3.0570 H       
 192 H192         -25.2702     2.4210     3.6789 H       
 193 H193         -24.5903     1.5539     5.9003 H       
 194 H194         -22.9512     1.2459     5.2783 H       
 195 H195         -23.5570     2.9150     5.4022 H       
 196 H196         -22.8274    -0.1814     2.7081 H       
 197 H197         -23.0403    -0.4834     4.4493 H       
 198 H198         -23.7938    -1.5711     3.2587 H       
 199 H199         -27.6405     0.0821     3.5361 H       
 200 H200         -28.5014     2.7938     2.9369 H       
 201 H201         -29.3211     1.5889     0.9424 H       
 202 H202         -31.7620     2.0698     1.2378 H       
 203 H203         -31.4882     2.2462     2.9877 H       
 204 H204         -29.8188     4.0557     2.4987 H       
 205 H205         -30.2285     3.9230     0.7716 H       
 206 H206         -31.4594     4.4607     1.9396 H       
 207 H207         -30.8268    -0.1596     2.9386 H       
 208 H208         -30.8841    -0.2832     1.1639 H       
 209 H209         -29.3813    -0.6718     2.0350 H       
 210 H210         -30.6226     3.2735     4.2341 H       
 211 H211         -30.4699     1.8238     6.7645 H       
 212 H212         -32.1958     4.1619     5.8352 H       
 213 H213         -32.1970     3.4992     7.4872 H       
 214 H214         -30.7449     6.2996     5.7809 H       
 215 H215         -28.4925     6.9640     6.8723 H       
 216 H216         -27.6073     5.1000     8.3829 H       
 217 H217         -33.8987     0.5265     6.6640 H       
 218 H218          22.1676     0.7402     6.4252 H       
 219 H219          21.3527     2.3227     6.4381 H       
 220 H220          21.8544     1.5675     7.9698 H       
 221 H221          20.2289    -0.2676     7.5975 H       
 222 H222          19.4140     1.3148     7.6104 H       
 223 H223          19.4551     1.3562     5.1314 H       
 224 H224          20.2699    -0.2263     5.1186 H       
 225 H225          18.3312    -1.2341     6.2909 H       
 226 H226          17.5164     0.3483     6.3037 H       
 227 H227          17.5575     0.3897     3.8248 H       
 228 H228          18.3723    -1.1928     3.8119 H       
 229 H229          16.4336    -2.2006     4.9842 H       
 230 H230          15.6188    -0.6182     4.9971 H       
 231 H231          15.6599    -0.5768     2.5181 H       
 232 H232          16.4747    -2.1593     2.5052 H       
 233 H233          14.5360    -3.1671     3.6776 H       
 234 H234          13.7212    -1.5847     3.6904 H       
 235 H235          13.7623    -1.5433     1.2115 H       
 236 H236          14.5771    -3.1258     1.1986 H       
 237 H237          12.6384    -4.1336     2.3709 H       
 238 H238          11.8235    -2.5512     2.3838 H       
 239 H239          11.8646    -2.5098    -0.0952 H       
 240 H240          12.6795    -4.0923    -0.1081 H       
 241 H241          10.7408    -5.1001     1.0642 H       
 242 H242           9.9259    -3.5177     1.0771 H       
 243 H243           9.9670    -3.4763    -1.4018 H       
 244 H244          10.7819    -5.0587    -1.4147 H       
 245 H245           8.8432    -6.0666    -0.2424 H       
 246 H246           8.0283    -4.4842    -0.2295 H       
 247 H247           8.8843    -6.0252    -2.7214 H       
 248 H248           8.0694    -4.4428    -2.7085 H       
@<TRIPOS>BOND
   1    1    2 2
   2    1    4 1
   3    1   14 am
   4    3    4 1
   5    3  114 1
   6    3  115 1
   7    4    5 1
   8    4  116 1
   9    5    6 1
  10    5  117 1
  11    5  118 1
  12    6    7 1
  13    6  119 1
  14    6  120 1
  15    7    8 1
  16    7  121 1
  17    7  122 1
  18    8    9 1
  19    8  123 1
  20    9   10 2
  21    9   11 1
  22   10  124 1
  23   11   97 am
  24   11  125 1
  25   12   13 2
  26   12   15 1
  27   12   20 am
  28   14   15 1
  29   14  126 1
  30   15   16 1
  31   15  127 1
  32   16   17 1
  33   16  128 1
  34   16  129 1
  35   17  130 1
  36   18   19 2
  37   18   21 1
  38   18   28 am
  39   20   21 1
  40   20  131 1
  41   21   22 1
  42   21  132 1
  43   22   23 1
  44   22   25 1
  45   22  133 1
  46   23   24 1
  47   23  134 1
  48   23  135 1
  49   24  136 1
  50   24  137 1
  51   24  138 1
  52   25  139 1
  53   25  140 1
  54   25  141 1
  55   26   27 2
  56   26   29 1
  57   26   39 am
  58   28   29 1
  59   28  142 1
  60   29   30 1
  61   29  143 1
  62   30   31 1
  63   30  144 1
  64   30  145 1
  65   31   32 1
  66   31  146 1
  67   31  147 1
  68   32   33 1
  69   32  148 1
  70   32  149 1
  71   33   34 1
  72   33  150 1
  73   34   35 2
  74   34   36 1
  75   35  151 1
  76   36  152 1
  77   36  153 1
  78   37   38 2
  79   37   40 1
  80   37   45 am
  81   39   40 1
  82   39  154 1
  83   40   41 1
  84   40  155 1
  85   41   42 1
  86   41  156 1
  87   41  157 1
  88   42  158 1
  89   43   44 2
  90   43   46 1
  91   43   53 am
  92   45   46 1
  93   45  159 1
  94   46   47 1
  95   46  160 1
  96   47   48 1
  97   47  161 1
  98   47  162 1
  99   48   49 1
 100   48   50 1
 101   48  163 1
 102   49  164 1
 103   49  165 1
 104   49  166 1
 105   50  167 1
 106   50  168 1
 107   50  169 1
 108   51   52 2
 109   51   54 1
 110   51   64 am
 111   53   54 1
 112   53  170 1
 113   54   55 1
 114   54  171 1
 115   55   56 1
 116   55  172 1
 117   55  173 1
 118   56   57 1
 119   56  174 1
 120   56  175 1
 121   57   58 1
 122   57  176 1
 123   57  177 1
 124   58   59 1
 125   58  178 1
 126   59   60 2
 127   59   61 1
 128   60  179 1
 129   61  180 1
 130   61  181 1
 131   62   63 2
 132   62   65 1
 133   62   72 am
 134   64   65 1
 135   64  182 1
 136   65   66 1
 137   65  183 1
 138   66   67 1
 139   66  184 1
 140   66  185 1
 141   67   68 2
 142   67   69 am
 143   69  186 1
 144   69  187 1
 145   70   71 2
 146   70   73 1
 147   70   80 am
 148   72   73 1
 149   72  188 1
 150   73   74 1
 151   73  189 1
 152   74   75 1
 153   74   77 1
 154   74  190 1
 155   75   76 1
 156   75  191 1
 157   75  192 1
 158   76  193 1
 159   76  194 1
 160   76  195 1
 161   77  196 1
 162   77  197 1
 163   77  198 1
 164   78   79 2
 165   78   81 1
 166   78   88 am
 167   80   81 1
 168   80  199 1
 169   81   82 1
 170   81  200 1
 171   82   83 1
 172   82   85 1
 173   82  201 1
 174   83   84 1
 175   83  202 1
 176   83  203 1
 177   84  204 1
 178   84  205 1
 179   84  206 1
 180   85  207 1
 181   85  208 1
 182   85  209 1
 183   86   87 2
 184   86   89 1
 185   86   96 1
 186   88   89 1
 187   88  210 1
 188   89   90 1
 189   89  211 1
 190   90   91 1
 191   90  212 1
 192   90  213 1
 193   91   92 2
 194   91   95 1
 195   92   93 1
 196   92  214 1
 197   93   94 1
 198   93  215 1
 199   94   95 2
 200   94  216 1
 201   96  217 1
 202   97   98 2
 203   97  113 1
 204   99  100 1
 205   99  218 1
 206   99  219 1
 207   99  220 1
 208  100  101 1
 209  100  221 1
 210  100  222 1
 211  101  102 1
 212  101  223 1
 213  101  224 1
 214  102  103 1
 215  102  225 1
 216  102  226 1
 217  103  104 1
 218  103  227 1
 219  103  228 1
 220  104  105 1
 221  104  229 1
 222  104  230 1
 223  105  106 1
 224  105  231 1
 225  105  232 1
 226  106  107 1
 227  106  233 1
 228  106  234 1
 229  107  108 1
 230  107  235 1
 231  107  236 1
 232  108  109 1
 233  108  237 1
 234  108  238 1
 235  109  110 1
 236  109  239 1
 237  109  240 1
 238  110  111 1
 239  110  241 1
 240  110  242 1
 241  111  112 1
 242  111  243 1
 243  111  244 1
 244  112  113 1
 245  112  245 1
 246  112  246 1
 247  113  247 1
 248  113  248 1

#	End of record

