#	Name: ASD01120186
#	Creating user name:	WinNT
#	Creation time:	15. 06. 2019 18:59

#	Modifying user name:	WinNT
#	Modification time:	15. 06. 2019 18:59

#	Program:	/corina/corina34_cracker 3.40 0067  02.08.2006

@<TRIPOS>MOLECULE
ASD01120186
  41   45    0    0    0
SMALL
NO_CHARGES


@<TRIPOS>ATOM
   1 C1            -0.0167     1.3828     0.0096 C.ar    
   2 C2             0.0021    -0.0041     0.0020 C.ar    
   3 C3            -1.1785    -0.7198     0.0090 C.ar    
   4 C4            -2.3914    -0.0514     0.0242 C.ar    
   5 C5            -2.4156     1.3515     0.0324 C.ar    
   6 C6            -1.2159     2.0636     0.0305 C.ar    
   7 O7            -3.6828    -0.4556     0.0344 O.3     
   8 C8            -4.4648     0.6381     0.0482 C.2     
   9 N9            -3.7266     1.7186     0.0472 N.2     
  10 Cl10           1.4775     2.2664     0.0001 Cl      
  11 N11           -5.8411     0.6234     0.0614 N.am    
  12 S12           -6.6843     2.0485     0.0777 S.o2    
  13 O13           -8.0618     1.7001     0.0544 O.2     
  14 O14           -6.1020     2.8477     1.0983 O.2     
  15 C15           -6.3526     2.8683    -1.4462 C.ar    
  16 C16           -7.1799     2.6250    -2.5426 C.ar    
  17 C17           -6.9728     3.2282    -3.7413 C.ar    
  18 C18           -5.8948     4.1265    -3.8916 C.ar    
  19 C19           -5.0250     4.3823    -2.7388 C.ar    
  20 C20           -5.3016     3.7246    -1.5213 C.ar    
  21 C21           -5.6526     4.7630    -5.1078 C.ar    
  22 C22           -4.5788     5.6438    -5.2212 C.ar    
  23 C23           -3.7090     5.8997    -4.0683 C.ar    
  24 C24           -3.9509     5.2635    -2.8524 C.ar    
  25 C25           -4.3040     6.3052    -6.4378 C.ar    
  26 C26           -3.2496     7.1566    -6.5139 C.ar    
  27 C27           -2.4219     7.3997    -5.4171 C.ar    
  28 C28           -2.6301     6.7976    -4.2186 C.ar    
  29 H29            0.9466    -0.5276    -0.0098 H       
  30 H30           -1.1563    -1.7995     0.0023 H       
  31 H31           -1.2263     3.1436     0.0371 H       
  32 H32           -6.3171    -0.2218     0.0612 H       
  33 H33           -8.0067     1.9385    -2.4354 H       
  34 H34           -7.6285     3.0217    -4.5742 H       
  35 H35           -4.6769     3.8955    -0.6570 H       
  36 H36           -6.2928     4.5744    -5.9569 H       
  37 H37           -3.3106     5.4522    -2.0035 H       
  38 H38           -4.9284     6.1345    -7.3023 H       
  39 H39           -3.0457     7.6588    -7.4481 H       
  40 H40           -1.5940     8.0849    -5.5247 H       
  41 H41           -1.9744     7.0038    -3.3855 H       
@<TRIPOS>BOND
   1    1    2 ar
   2    1   10 1
   3    1    6 ar
   4    2    3 ar
   5    2   29 1
   6    3    4 ar
   7    3   30 1
   8    4    5 ar
   9    4    7 1
  10    5    6 ar
  11    5    9 1
  12    6   31 1
  13    7    8 1
  14    8    9 2
  15    8   11 1
  16   11   12 am
  17   11   32 1
  18   12   13 2
  19   12   14 2
  20   12   15 1
  21   15   16 ar
  22   15   20 ar
  23   16   17 ar
  24   16   33 1
  25   17   18 ar
  26   17   34 1
  27   18   19 ar
  28   18   21 ar
  29   19   20 ar
  30   19   24 ar
  31   20   35 1
  32   21   22 ar
  33   21   36 1
  34   22   23 ar
  35   22   25 ar
  36   23   24 ar
  37   23   28 ar
  38   24   37 1
  39   25   26 ar
  40   25   38 1
  41   26   27 ar
  42   26   39 1
  43   27   28 ar
  44   27   40 1
  45   28   41 1

#	End of record

