#	Name: ASD01908335
#	Creating user name:	WinNT
#	Creation time:	15. 06. 2019 19:54

#	Modifying user name:	WinNT
#	Modification time:	15. 06. 2019 19:54

#	Program:	/corina/corina34_cracker 3.40 0067  02.08.2006

@<TRIPOS>MOLECULE
ASD01908335
  34   36    0    0    0
SMALL
NO_CHARGES


@<TRIPOS>ATOM
   1 S1            -0.0218     1.7572     0.0117 S.3     
   2 C2             0.0021    -0.0041     0.0020 C.2     
   3 N3             1.2388    -0.4149    -0.0120 N.2     
   4 C4             2.1757     0.5109    -0.0160 C.2     
   5 C5             1.7403     1.7787    -0.0050 C.2     
   6 N6             3.5425     0.1905    -0.0307 N.pl3   
   7 N7            -3.2699    -1.5681     0.0263 N.pl3   
   8 N8            -2.4351    -2.6919     0.0130 N.2     
   9 C9            -1.1930    -2.2881     0.0029 C.2     
  10 C10           -1.1914    -0.8776     0.0095 C.2     
  11 C11           -2.4948    -0.4658     0.0240 C.2     
  12 C12           -4.7347    -1.5872     0.0350 C.3     
  13 C13           -5.2334    -2.4005    -1.1316 C.ar    
  14 C14           -5.4449    -3.7591    -0.9856 C.ar    
  15 C15           -5.9020    -4.5068    -2.0534 C.ar    
  16 C16           -6.1489    -3.8935    -3.2731 C.ar    
  17 C17           -5.9358    -2.5302    -3.4170 C.ar    
  18 C18           -5.4841    -1.7859    -2.3445 C.ar    
  19 O19           -6.5981    -4.6270    -4.3252 O.3     
  20 C20           -6.8308    -3.9292    -5.5503 C.3     
  21 H21            2.3624     2.6616    -0.0069 H       
  22 H22            3.8229    -0.7380    -0.0388 H       
  23 H23            4.2064     0.8977    -0.0329 H       
  24 H24           -0.3196    -2.9233    -0.0085 H       
  25 H25           -2.8406     0.5573     0.0318 H       
  26 H26           -5.0868    -2.0327     0.9654 H       
  27 H27           -5.1119    -0.5677    -0.0452 H       
  28 H28           -5.2523    -4.2361    -0.0360 H       
  29 H29           -6.0667    -5.5680    -1.9390 H       
  30 H30           -6.1272    -2.0505    -4.3655 H       
  31 H31           -5.3226    -0.7237    -2.4547 H       
  32 H32           -7.5817    -3.1554    -5.3908 H       
  33 H33           -5.9021    -3.4699    -5.8889 H       
  34 H34           -7.1860    -4.6300    -6.3059 H       
@<TRIPOS>BOND
   1    1    2 1
   2    1    5 1
   3    2    3 2
   4    2   10 1
   5    3    4 1
   6    4    5 2
   7    4    6 1
   8    5   21 1
   9    6   22 1
  10    6   23 1
  11    7    8 1
  12    7   11 1
  13    7   12 1
  14    8    9 2
  15    9   10 1
  16    9   24 1
  17   10   11 2
  18   11   25 1
  19   12   13 1
  20   12   26 1
  21   12   27 1
  22   13   14 ar
  23   13   18 ar
  24   14   15 ar
  25   14   28 1
  26   15   16 ar
  27   15   29 1
  28   16   17 ar
  29   16   19 1
  30   17   18 ar
  31   17   30 1
  32   18   31 1
  33   19   20 1
  34   20   32 1
  35   20   33 1
  36   20   34 1

#	End of record

