#	Name: ASD01915079
#	Creating user name:	WinNT
#	Creation time:	15. 06. 2019 20:04

#	Modifying user name:	WinNT
#	Modification time:	15. 06. 2019 20:04

#	Program:	/corina/corina34_cracker 3.40 0067  02.08.2006

@<TRIPOS>MOLECULE
ASD01915079
  39   42    0    0    0
SMALL
NO_CHARGES


@<TRIPOS>ATOM
   1 C1            -0.0168     1.3908     0.0097 C.ar    
   2 C2             0.0021    -0.0041     0.0020 C.ar    
   3 N3            -1.1446    -0.6911     0.0097 N.ar    
   4 C4            -2.3175    -0.0898     0.0245 C.ar    
   5 C5            -2.4076     1.3022     0.0329 C.ar    
   6 C6            -1.2660     2.0496     0.0306 C.ar    
   7 C7             1.3294     1.9570    -0.0001 C.2     
   8 C8             2.3061     1.0536    -0.0143 C.2     
   9 S9             1.6657    -0.5776    -0.0169 S.3     
  10 C10            1.5863     3.4166     0.0045 C.ar    
  11 C11            1.2162     4.1887     1.1050 C.ar    
  12 S12            4.0236     1.4470    -0.0286 S.o2    
  13 O13            4.6885     0.3214    -0.5854 O.2     
  14 O14            4.1306     2.7577    -0.5670 O.2     
  15 C15            4.5481     1.5544     1.6501 C.ar    
  16 C16            5.0210     0.4294     2.2996 C.ar    
  17 C17            4.4917     2.7649     2.3155 C.ar    
  18 C18            4.9034     2.8499     3.6321 C.ar    
  19 C19            5.3715     1.7231     4.2844 C.ar    
  20 C20            5.4321     0.5129     3.6165 C.ar    
  21 C21            1.4576     5.5472     1.1041 C.ar    
  22 C22            2.0661     6.1439     0.0130 C.ar    
  23 C23            2.4356     5.3820    -1.0823 C.ar    
  24 C24            2.2041     4.0218    -1.0894 C.ar    
  25 N25           -3.4797    -0.8528     0.0314 N.pl3   
  26 Cl26           2.3664     7.8537     0.0181 Cl      
  27 Cl27           5.8888     1.8290     5.9381 Cl      
  28 H28           -3.3738     1.7847     0.0450 H       
  29 H29           -1.3169     3.1283     0.0369 H       
  30 H30            0.7411     3.7243     1.9565 H       
  31 H31            5.0689    -0.5150     1.7779 H       
  32 H32            4.1263     3.6444     1.8062 H       
  33 H33            4.8600     3.7957     4.1516 H       
  34 H34            5.7970    -0.3671     4.1252 H       
  35 H35            1.1710     6.1462     1.9558 H       
  36 H36            2.9097     5.8525    -1.9310 H       
  37 H37            2.4927     3.4283    -1.9443 H       
  38 H38           -3.4242    -1.8212     0.0254 H       
  39 H39           -4.3461    -0.4167     0.0424 H       
@<TRIPOS>BOND
   1    1    2 ar
   2    1    7 1
   3    1    6 ar
   4    2    3 ar
   5    2    9 1
   6    3    4 ar
   7    4    5 ar
   8    4   25 1
   9    5    6 ar
  10    5   28 1
  11    6   29 1
  12    7    8 2
  13    7   10 1
  14    8    9 1
  15    8   12 1
  16   10   11 ar
  17   10   24 ar
  18   11   21 ar
  19   11   30 1
  20   12   13 2
  21   12   14 2
  22   12   15 1
  23   15   16 ar
  24   15   17 ar
  25   16   20 ar
  26   16   31 1
  27   17   18 ar
  28   17   32 1
  29   18   19 ar
  30   18   33 1
  31   19   20 ar
  32   19   27 1
  33   20   34 1
  34   21   22 ar
  35   21   35 1
  36   22   23 ar
  37   22   26 1
  38   23   24 ar
  39   23   36 1
  40   24   37 1
  41   25   38 1
  42   25   39 1

#	End of record

