#	Name: ASD01230594
#	Creating user name:	WinNT
#	Creation time:	15. 06. 2019 19:14

#	Modifying user name:	WinNT
#	Modification time:	15. 06. 2019 19:14

#	Program:	/corina/corina34_cracker 3.40 0067  02.08.2006

@<TRIPOS>MOLECULE
ASD01230594
  34   36    0    0    0
SMALL
NO_CHARGES


@<TRIPOS>ATOM
   1 S1            -0.0204     1.6502     0.0111 S.o2    
   2 N2             0.0021    -0.0041     0.0020 N.am    
   3 C3             1.0258    -0.6894    -0.4559 C.2     
   4 N4             2.1708    -0.1518    -0.9675 N.pl3   
   5 C5             2.3935     1.2852    -1.1466 C.3     
   6 C6             1.7499     2.0756    -0.0035 C.3     
   7 C7             0.8927    -2.1124    -0.3975 C.2     
   8 C8             1.9125    -2.9079    -0.8069 C.2     
   9 C9             3.0961    -2.3171    -1.2859 C.2     
  10 C10            3.1999    -0.9794    -1.3551 C.2     
  11 O11           -0.2573    -2.6684     0.0694 O.3     
  12 C12           -0.3219    -4.0956     0.1001 C.3     
  13 C13           -1.6603    -4.5263     0.6427 C.ar    
  14 C14           -2.7228    -4.7274    -0.2183 C.ar    
  15 C15           -3.9512    -5.1227     0.2799 C.ar    
  16 C16           -4.1156    -5.3166     1.6401 C.ar    
  17 C17           -3.0527    -5.1153     2.4999 C.ar    
  18 C18           -1.8236    -4.7257     2.0007 C.ar    
  19 Cl19          -5.2863    -5.3748    -0.8008 Cl      
  20 O20           -0.6347     2.0061    -1.2198 O.2     
  21 O21           -0.6111     1.9928     1.2573 O.2     
  22 H22            3.4652     1.4837    -1.1622 H       
  23 H23            1.9561     1.6015    -2.0935 H       
  24 H24            1.8736     3.1448    -0.1755 H       
  25 H25            2.2071     1.7956     0.9455 H       
  26 H26            1.8171    -3.9829    -0.7652 H       
  27 H27            3.9217    -2.9393    -1.5983 H       
  28 H28            4.1155    -0.5418    -1.7248 H       
  29 H29           -0.1963    -4.4869    -0.9095 H       
  30 H30            0.4711    -4.4816     0.7407 H       
  31 H31           -2.5940    -4.5755    -1.2798 H       
  32 H32           -5.0746    -5.6249     2.0297 H       
  33 H33           -3.1808    -5.2667     3.5615 H       
  34 H34           -0.9918    -4.5731     2.6725 H       
@<TRIPOS>BOND
   1    1    2 am
   2    1    6 1
   3    1   20 2
   4    1   21 2
   5    2    3 2
   6    3    4 1
   7    3    7 1
   8    4    5 1
   9    4   10 1
  10    5    6 1
  11    5   22 1
  12    5   23 1
  13    6   24 1
  14    6   25 1
  15    7    8 2
  16    7   11 1
  17    8    9 1
  18    8   26 1
  19    9   10 2
  20    9   27 1
  21   10   28 1
  22   11   12 1
  23   12   13 1
  24   12   29 1
  25   12   30 1
  26   13   14 ar
  27   13   18 ar
  28   14   15 ar
  29   14   31 1
  30   15   16 ar
  31   15   19 1
  32   16   17 ar
  33   16   32 1
  34   17   18 ar
  35   17   33 1
  36   18   34 1

#	End of record

