#	Name: ASD06710040
#	Creating user name:	WinNT
#	Creation time:	15. 06. 2019 21:08

#	Modifying user name:	WinNT
#	Modification time:	15. 06. 2019 21:08

#	Program:	/corina/corina34_cracker 3.40 0067  02.08.2006

@<TRIPOS>MOLECULE
ASD06710040
  63   64    0    0    0
SMALL
NO_CHARGES


@<TRIPOS>ATOM
   1 C1            -0.0644     1.6458    -0.0323 C.ar    
   2 C2            -0.1462     0.2741     0.1580 C.ar    
   3 C3             1.0134    -0.4759     0.2900 C.ar    
   4 C4             2.2463     0.1446     0.2317 C.ar    
   5 C5             2.3251     1.5119     0.0424 C.ar    
   6 C6             1.1709     2.2616    -0.0899 C.ar    
   7 C7             3.5757     2.3346    -2.5162 C.ar    
   8 C8             3.7834     2.9668    -1.3041 C.ar    
   9 C9             3.6714     2.1863    -0.0198 C.3     
  10 C10            3.6778     3.0478    -3.6949 C.ar    
  11 C11            3.9890     4.3994    -3.6617 C.ar    
  12 C12            4.1974     5.0312    -2.4444 C.ar    
  13 C13            4.0941     4.3136    -1.2684 C.ar    
  14 O14           -1.3602    -0.3339     0.2154 O.3     
  15 O15            4.0904     5.1030    -4.8200 O.3     
  16 C16           -1.3683    -1.7491     0.4134 C.3     
  17 C17           -2.8133    -2.2506     0.4507 C.3     
  18 C18           -2.8210    -3.7781     0.5375 C.3     
  19 O19           -3.4775    -1.7053     1.5924 O.3     
  20 C20            4.4138     6.4906    -4.7098 C.3     
  21 C21            4.4837     7.1104    -6.1069 C.3     
  22 O22            3.1893     7.0707    -6.7109 O.3     
  23 O23           -4.1662    -4.2532     0.4550 O.3     
  24 C24            4.9512     8.5631    -5.9976 C.3     
  25 Cl25           5.1747     9.2486    -7.6501 Cl      
  26 C26           -4.2858    -5.6754     0.5267 C.3     
  27 C27           -5.6277    -6.0429     1.1631 C.3     
  28 C28            3.8209     3.1372     1.1695 C.3     
  29 C29            4.7749     1.1278     0.0317 C.3     
  30 C30           -4.2114    -6.2651    -0.8831 C.3     
  31 H31           -0.9656     2.2312    -0.1398 H       
  32 H32            0.9524    -1.5439     0.4385 H       
  33 H33            3.1494    -0.4389     0.3344 H       
  34 H34            1.2351     3.3295    -0.2376 H       
  35 H35            3.3378     1.2815    -2.5416 H       
  36 H36            3.5158     2.5535    -4.6414 H       
  37 H37            4.4401     6.0832    -2.4160 H       
  38 H38            4.2559     4.8050    -0.3205 H       
  39 H39           -0.8366    -2.2336    -0.4054 H       
  40 H40           -0.8768    -1.9868     1.3569 H       
  41 H41           -3.3307    -1.9356    -0.4555 H       
  42 H42           -2.2385    -4.1917    -0.2857 H       
  43 H43           -2.3829    -4.0904     1.4855 H       
  44 H44           -3.0704    -1.9452     2.4361 H       
  45 H45            3.6459     6.9974    -4.1255 H       
  46 H46            5.3787     6.6006    -4.2149 H       
  47 H47            5.1879     6.5473    -6.7194 H       
  48 H48            2.5106     7.5526    -6.2186 H       
  49 H49            4.2030     9.1461    -5.4606 H       
  50 H50            5.8973     8.6007    -5.4576 H       
  51 H51           -3.4739    -6.0782     1.1323 H       
  52 H52           -6.4395    -5.6401     0.5575 H       
  53 H53           -5.7189    -7.1277     1.2178 H       
  54 H54           -5.6806    -5.6228     2.1675 H       
  55 H55            3.0347     3.8913     1.1328 H       
  56 H56            3.7398     2.5728     2.0984 H       
  57 H57            4.7946     3.6250     1.1245 H       
  58 H58            5.7487     1.6157    -0.0133 H       
  59 H59            4.6939     0.5634     0.9606 H       
  60 H60            4.6684     0.4504    -0.8156 H       
  61 H61           -3.2554    -6.0032    -1.3366 H       
  62 H62           -4.3026    -7.3499    -0.8285 H       
  63 H63           -5.0232    -5.8623    -1.4888 H       
@<TRIPOS>BOND
   1    1    2 ar
   2    1    6 ar
   3    1   31 1
   4    2    3 ar
   5    2   14 1
   6    3    4 ar
   7    3   32 1
   8    4    5 ar
   9    4   33 1
  10    5    6 ar
  11    5    9 1
  12    6   34 1
  13    7    8 ar
  14    7   10 ar
  15    7   35 1
  16    8    9 1
  17    8   13 ar
  18    9   28 1
  19    9   29 1
  20   10   11 ar
  21   10   36 1
  22   11   12 ar
  23   11   15 1
  24   12   13 ar
  25   12   37 1
  26   13   38 1
  27   14   16 1
  28   15   20 1
  29   16   17 1
  30   16   39 1
  31   16   40 1
  32   17   18 1
  33   17   19 1
  34   17   41 1
  35   18   23 1
  36   18   42 1
  37   18   43 1
  38   19   44 1
  39   20   21 1
  40   20   45 1
  41   20   46 1
  42   21   24 1
  43   21   22 1
  44   21   47 1
  45   22   48 1
  46   23   26 1
  47   24   25 1
  48   24   49 1
  49   24   50 1
  50   26   27 1
  51   26   30 1
  52   26   51 1
  53   27   52 1
  54   27   53 1
  55   27   54 1
  56   28   55 1
  57   28   56 1
  58   28   57 1
  59   29   58 1
  60   29   59 1
  61   29   60 1
  62   30   61 1
  63   30   62 1
  64   30   63 1

#	End of record

