#	Name: ASD01811460
#	Creating user name:	WinNT
#	Creation time:	15. 06. 2019 19:26

#	Modifying user name:	WinNT
#	Modification time:	15. 06. 2019 19:26

#	Program:	/corina/corina34_cracker 3.40 0067  02.08.2006

@<TRIPOS>MOLECULE
ASD01811460
  42   44    0    0    0
SMALL
NO_CHARGES


@<TRIPOS>ATOM
   1 C1             0.0796     1.4724    -0.0740 C.2     
   2 C2             0.0495    -0.0044    -0.0381 C.ar    
   3 C3             1.1895    -0.7367    -0.3797 C.ar    
   4 C4             1.1627    -2.1163    -0.3461 C.ar    
   5 C5             0.0109    -2.7821     0.0249 C.ar    
   6 C6            -1.1354    -2.0628     0.3683 C.ar    
   7 C7            -1.1142    -0.6703     0.3422 C.ar    
   8 O8             1.1216     2.0532    -0.3028 O.2     
   9 O9            -1.0496     2.1745     0.1416 O.3     
  10 C10           -2.3683    -2.7780     0.7644 C.2     
  11 N11           -3.5905    -2.2046     0.9826 N.pl3   
  12 C12           -4.4396    -3.2080     1.3254 C.2     
  13 C13           -3.7276    -4.3617     1.3081 C.2     
  14 N14           -2.4764    -4.0765     0.9614 N.2     
  15 C15           -5.9038    -3.1431     1.6752 C.3     
  16 C16           -4.3410    -5.7022     1.6348 C.3     
  17 C17           -5.8673    -5.5470     1.5675 C.3     
  18 O18           -6.2657    -4.3837     2.2977 O.3     
  19 C19           -3.8805    -6.7455     0.6148 C.3     
  20 C20           -0.0088    -4.2886     0.0586 C.3     
  21 C21            2.4506    -0.0187    -0.7862 C.3     
  22 C22            3.2146     0.4185     0.4652 C.3     
  23 H23            2.0464    -2.6777    -0.6114 H       
  24 H24           -1.9968    -0.1092     0.6116 H       
  25 H25           -0.9803     3.1384     0.1081 H       
  26 H26           -3.8090    -1.2625     0.9073 H       
  27 H27           -6.0816    -2.3187     2.3657 H       
  28 H28           -6.4931    -2.9997     0.7695 H       
  29 H29           -4.0449    -6.0094     2.6378 H       
  30 H30           -6.1760    -5.4457     0.5270 H       
  31 H31           -6.3409    -6.4276     2.0015 H       
  32 H32           -2.7941    -6.8292     0.6459 H       
  33 H33           -4.3263    -7.7106     0.8556 H       
  34 H34           -4.1929    -6.4400    -0.3838 H       
  35 H35            0.1789    -4.6317     1.0760 H       
  36 H36           -0.9839    -4.6467    -0.2715 H       
  37 H37            0.7644    -4.6770    -0.6043 H       
  38 H38            3.0752    -0.6881    -1.3779 H       
  39 H39            2.1939     0.8585    -1.3802 H       
  40 H40            2.5900     1.0878     1.0568 H       
  41 H41            3.4712    -0.4587     1.0592 H       
  42 H42            4.1267     0.9378     0.1712 H       
@<TRIPOS>BOND
   1    1    2 1
   2    1    8 2
   3    1    9 1
   4    2    3 ar
   5    2    7 ar
   6    3    4 ar
   7    3   21 1
   8    4    5 ar
   9    4   23 1
  10    5    6 ar
  11    5   20 1
  12    6    7 ar
  13    6   10 1
  14    7   24 1
  15    9   25 1
  16   10   11 1
  17   10   14 2
  18   11   12 1
  19   11   26 1
  20   12   13 2
  21   12   15 1
  22   13   14 1
  23   13   16 1
  24   15   18 1
  25   15   27 1
  26   15   28 1
  27   16   17 1
  28   16   19 1
  29   16   29 1
  30   17   18 1
  31   17   30 1
  32   17   31 1
  33   19   32 1
  34   19   33 1
  35   19   34 1
  36   20   35 1
  37   20   36 1
  38   20   37 1
  39   21   22 1
  40   21   38 1
  41   21   39 1
  42   22   40 1
  43   22   41 1
  44   22   42 1

#	End of record

