#	Name: ASD08150202
#	Creating user name:	WinNT
#	Creation time:	15. 06. 2019 21:15

#	Modifying user name:	WinNT
#	Modification time:	15. 06. 2019 21:15

#	Program:	/corina/corina34_cracker 3.40 0067  02.08.2006

@<TRIPOS>MOLECULE
ASD08150202
  52   57    0    0    0
SMALL
NO_CHARGES


@<TRIPOS>ATOM
   1 N1            -0.0325     1.3092     0.1165 N.2     
   2 C2            -0.0451     0.0158     0.0037 C.2     
   3 N3             1.0591    -0.7195    -0.2892 N.am    
   4 C4             2.2562    -0.1182    -0.4819 C.2     
   5 C5             2.3050     1.3465    -0.3613 C.ar    
   6 C6             3.4871     2.0619    -0.5413 C.ar    
   7 C7             3.4758     3.4338    -0.4171 C.ar    
   8 C8             2.2988     4.1060    -0.1144 C.ar    
   9 C9             1.1204     3.4179     0.0677 C.ar    
  10 C10            1.1060     2.0268    -0.0538 C.ar    
  11 O11            3.2536    -0.7646    -0.7445 O.2     
  12 C12           -1.3515    -0.7070     0.2087 C.3     
  13 S13           -2.6528     0.4937     0.5842 S.3     
  14 N14           -5.8157     1.1437     1.2945 N.2     
  15 C15           -7.0885     1.0472     1.5484 C.2     
  16 N16           -7.4727    -0.2603     1.5117 N.pl3   
  17 C17           -6.3606    -1.0074     1.2160 C.ar    
  18 N18           -6.1177    -2.3037     1.0505 N.ar    
  19 C19           -4.9052    -2.7281     0.7624 C.ar    
  20 N20           -3.8811    -1.9066     0.6234 N.ar    
  21 C21           -4.0272    -0.5929     0.7708 C.ar    
  22 C22           -5.3039    -0.0917     1.0793 C.ar    
  23 C23            0.9532    -2.1767    -0.3969 C.3     
  24 C24            1.5104    -2.8340    -1.6612 C.3     
  25 C25            2.2498    -2.9861    -0.3304 C.3     
  26 C26            0.7841    -4.0415    -2.1956 C.ar    
  27 C27            0.2511    -4.0191    -3.4709 C.ar    
  28 C28           -0.4152    -5.1266    -3.9611 C.ar    
  29 C29           -0.5481    -6.2567    -3.1762 C.ar    
  30 C30           -0.0143    -6.2795    -1.9012 C.ar    
  31 C31            0.6557    -5.1734    -1.4126 C.ar    
  32 C32            4.7687     1.3399    -0.8689 C.3     
  33 H33            4.3903     3.9915    -0.5559 H       
  34 H34            2.3081     5.1818    -0.0204 H       
  35 H35            0.2113     3.9514     0.3028 H       
  36 H36           -1.6112    -1.2524    -0.6986 H       
  37 H37           -1.2530    -1.4073     1.0381 H       
  38 H38           -7.7436     1.8800     1.7574 H       
  39 H39           -8.3680    -0.6000     1.6662 H       
  40 H40           -4.7421    -3.7880     0.6348 H       
  41 H41            0.0611    -2.6174     0.0481 H       
  42 H42            1.9557    -2.1822    -2.4128 H       
  43 H43            3.1817    -2.4344    -0.2065 H       
  44 H44            2.2110    -3.9595     0.1585 H       
  45 H45            0.3549    -3.1361    -4.0841 H       
  46 H46           -0.8322    -5.1089    -4.9572 H       
  47 H47           -1.0692    -7.1218    -3.5589 H       
  48 H48           -0.1184    -7.1623    -1.2879 H       
  49 H49            1.0759    -5.1925    -0.4179 H       
  50 H50            4.7887     1.0995    -1.9319 H       
  51 H51            5.6179     1.9782    -0.6248 H       
  52 H52            4.8265     0.4200    -0.2872 H       
@<TRIPOS>BOND
   1    1    2 2
   2    1   10 1
   3    2    3 1
   4    2   12 1
   5    3    4 am
   6    3   23 1
   7    4    5 1
   8    4   11 2
   9    5    6 ar
  10    5   10 ar
  11    6    7 ar
  12    6   32 1
  13    7    8 ar
  14    7   33 1
  15    8    9 ar
  16    8   34 1
  17    9   10 ar
  18    9   35 1
  19   12   13 1
  20   12   36 1
  21   12   37 1
  22   13   21 1
  23   14   15 2
  24   14   22 1
  25   15   16 1
  26   15   38 1
  27   16   17 1
  28   16   39 1
  29   17   18 ar
  30   17   22 ar
  31   18   19 ar
  32   19   20 ar
  33   19   40 1
  34   20   21 ar
  35   21   22 ar
  36   23   24 1
  37   23   25 1
  38   23   41 1
  39   24   25 1
  40   24   26 1
  41   24   42 1
  42   25   43 1
  43   25   44 1
  44   26   27 ar
  45   26   31 ar
  46   27   28 ar
  47   27   45 1
  48   28   29 ar
  49   28   46 1
  50   29   30 ar
  51   29   47 1
  52   30   31 ar
  53   30   48 1
  54   31   49 1
  55   32   50 1
  56   32   51 1
  57   32   52 1

#	End of record

