#	Name: ASD01884007
#	Creating user name:	WinNT
#	Creation time:	15. 06. 2019 19:47

#	Modifying user name:	WinNT
#	Modification time:	15. 06. 2019 19:47

#	Program:	/corina/corina34_cracker 3.40 0067  02.08.2006

@<TRIPOS>MOLECULE
ASD01884007
  51   54    0    0    0
SMALL
NO_CHARGES


@<TRIPOS>ATOM
   1 C1            -0.1391     0.9798     0.0359 C.3     
   2 O2            -0.0147    -0.4411    -0.0521 O.3     
   3 C3             0.6417    -0.9373    -1.1343 C.ar    
   4 C4            -0.0595    -1.2393    -2.2948 C.ar    
   5 F5            -1.3945    -1.0397    -2.3493 F       
   6 C6             0.6102    -1.7442    -3.3948 C.ar    
   7 C7             1.9763    -1.9488    -3.3398 C.ar    
   8 C8             2.6775    -1.6485    -2.1841 C.ar    
   9 F9             4.0126    -1.8489    -2.1332 F       
  10 C10            2.0126    -1.1374    -1.0833 C.ar    
  11 C11            2.7771    -0.8045     0.1720 C.3     
  12 C12            3.4616    -2.0666     0.7019 C.3     
  13 C13            4.2091    -1.7320     1.9965 C.3     
  14 N14            5.1246    -0.6122     1.7381 N.pl3   
  15 C15            4.5852     0.6186     1.1441 C.3     
  16 C16            3.8335     0.2577    -0.1410 C.3     
  17 C17            6.4781    -0.7154     2.0507 C.2     
  18 C18            7.4410    -0.7044     1.0229 C.2     
  19 N19            8.7138    -0.8004     1.2960 N.2     
  20 N20            9.1517    -0.9162     2.6162 N.pl3   
  21 C21           10.3749    -1.0301     3.1980 C.2     
  22 C22           11.7013    -1.0628     2.4834 C.3     
  23 C23           12.2378     0.3627     2.3385 C.3     
  24 F24           12.4052     0.9291     3.6067 F       
  25 F25           13.4692     0.3324     1.6752 F       
  26 F26           11.3297     1.1301     1.6012 F       
  27 N27           10.1913    -1.1062     4.4916 N.2     
  28 N28            8.9357    -1.0483     4.7689 N.2     
  29 C29            8.2419    -0.9303     3.6474 C.2     
  30 C30            6.8726    -0.8220     3.3572 C.2     
  31 C31            5.8525    -0.8289     4.4664 C.3     
  32 F32            5.3905    -2.1340     4.6669 F       
  33 F33            6.4411    -0.3563     5.6442 F       
  34 F34            4.7788    -0.0026     4.1176 F       
  35 H35            0.8530     1.4304     0.0630 H       
  36 H36           -0.6833     1.3513    -0.8324 H       
  37 H37           -0.6819     1.2414     0.9442 H       
  38 H38            0.0654    -1.9791    -4.2972 H       
  39 H39            2.4974    -2.3437    -4.1994 H       
  40 H40            2.0889    -0.4213     0.9254 H       
  41 H41            2.7107    -2.8308     0.9025 H       
  42 H42            4.1683    -2.4364    -0.0410 H       
  43 H43            3.4938    -1.4484     2.7686 H       
  44 H44            4.7787    -2.6014     2.3247 H       
  45 H45            3.9006     1.0938     1.8467 H       
  46 H46            5.4030     1.3002     0.9099 H       
  47 H47            4.5367    -0.1341    -0.8760 H       
  48 H48            3.3473     1.1477    -0.5403 H       
  49 H49            7.1219    -0.6155    -0.0051 H       
  50 H50           12.4089    -1.6607     3.0579 H       
  51 H51           11.5709    -1.5041     1.4953 H       
@<TRIPOS>BOND
   1    1    2 1
   2    1   35 1
   3    1   36 1
   4    1   37 1
   5    2    3 1
   6    3   10 ar
   7    3    4 ar
   8    4    5 1
   9    4    6 ar
  10    6    7 ar
  11    6   38 1
  12    7    8 ar
  13    7   39 1
  14    8    9 1
  15    8   10 ar
  16   10   11 1
  17   11   16 1
  18   11   12 1
  19   11   40 1
  20   12   13 1
  21   12   41 1
  22   12   42 1
  23   13   14 1
  24   13   43 1
  25   13   44 1
  26   14   15 1
  27   14   17 1
  28   15   16 1
  29   15   45 1
  30   15   46 1
  31   16   47 1
  32   16   48 1
  33   17   30 2
  34   17   18 1
  35   18   19 2
  36   18   49 1
  37   19   20 1
  38   20   29 1
  39   20   21 1
  40   21   22 1
  41   21   27 2
  42   22   23 1
  43   22   50 1
  44   22   51 1
  45   23   24 1
  46   23   25 1
  47   23   26 1
  48   27   28 1
  49   28   29 2
  50   29   30 1
  51   30   31 1
  52   31   32 1
  53   31   33 1
  54   31   34 1

#	End of record

