#	Name: ASD09740018
#	Creating user name:	WinNT
#	Creation time:	15. 06. 2019 21:22

#	Modifying user name:	WinNT
#	Modification time:	15. 06. 2019 21:22

#	Program:	/corina/corina34_cracker 3.40 0067  02.08.2006

@<TRIPOS>MOLECULE
ASD09740018
  29   31    0    0    0
SMALL
NO_CHARGES


@<TRIPOS>ATOM
   1 N1            -0.0144     1.2087     0.0087 N.2     
   2 O2             0.0021    -0.0041     0.0020 O.3     
   3 C3             1.2069     1.6747    -0.0005 C.2     
   4 N4             2.0404     0.6103    -0.0141 N.2     
   5 C5             1.2640    -0.4445    -0.0124 C.2     
   6 C6             1.7097    -1.8841    -0.0239 C.3     
   7 C7             1.6044     3.1054     0.0030 C.ar    
   8 C8             0.6415     4.1175     0.0177 C.ar    
   9 C9             1.0544     5.4347     0.0209 C.ar    
  10 N10            2.3369     5.7421     0.0103 N.ar    
  11 C11            3.2771     4.8173    -0.0037 C.ar    
  12 C12            2.9514     3.4758    -0.0025 C.ar    
  13 C13            1.8714    -2.3713     1.3929 C.ar    
  14 C14            0.8020    -2.9488     2.0515 C.ar    
  15 C15            0.9503    -3.3956     3.3512 C.ar    
  16 C16            2.1681    -3.2654     3.9922 C.ar    
  17 C17            3.2377    -2.6887     3.3333 C.ar    
  18 C18            3.0906    -2.2458     2.0321 C.ar    
  19 H19            0.9622    -2.4917    -0.5340 H       
  20 H20            2.6625    -1.9653    -0.5470 H       
  21 H21           -0.4104     3.8730     0.0260 H       
  22 H22            0.3174     6.2241     0.0318 H       
  23 H23            4.3157     5.1134    -0.0124 H       
  24 H24            3.7264     2.7238    -0.0136 H       
  25 H25           -0.1495    -3.0505     1.5508 H       
  26 H26            0.1146    -3.8462     3.8660 H       
  27 H27            2.2838    -3.6138     5.0079 H       
  28 H28            4.1891    -2.5866     3.8342 H       
  29 H29            3.9263    -1.7952     1.5173 H       
@<TRIPOS>BOND
   1    1    2 1
   2    1    3 2
   3    2    5 1
   4    3    4 1
   5    3    7 1
   6    4    5 2
   7    5    6 1
   8    6   13 1
   9    6   19 1
  10    6   20 1
  11    7    8 ar
  12    7   12 ar
  13    8    9 ar
  14    8   21 1
  15    9   10 ar
  16    9   22 1
  17   10   11 ar
  18   11   12 ar
  19   11   23 1
  20   12   24 1
  21   13   14 ar
  22   13   18 ar
  23   14   15 ar
  24   14   25 1
  25   15   16 ar
  26   15   26 1
  27   16   17 ar
  28   16   27 1
  29   17   18 ar
  30   17   28 1
  31   18   29 1

#	End of record

