#	Name: ASD01941035
#	Creating user name:	WinNT
#	Creation time:	15. 06. 2019 20:13

#	Modifying user name:	WinNT
#	Modification time:	15. 06. 2019 20:13

#	Program:	/corina/corina34_cracker 3.40 0067  02.08.2006

@<TRIPOS>MOLECULE
ASD01941035
  67   71    0    0    0
SMALL
NO_CHARGES


@<TRIPOS>ATOM
   1 N1            -0.4464     1.2962     0.0966 N.am    
   2 C2            -0.1730    -0.0157     0.1637 C.2     
   3 N3            -1.1187    -0.9659     0.0560 N.am    
   4 C4            -2.4423    -0.6180    -0.1329 C.2     
   5 C5            -2.7829     0.7589    -0.2107 C.2     
   6 C6            -1.7080     1.7456    -0.0809 C.2     
   7 C7            -3.4415    -1.5617    -0.2486 C.2     
   8 C8            -4.7612    -1.1391    -0.4391 C.2     
   9 N9            -5.0694     0.1676    -0.5108 N.am    
  10 C10           -4.1106     1.1291    -0.4002 C.2     
  11 C11           -0.7592    -2.3173     0.1353 C.ar    
  12 C12           -0.1966    -2.9513    -0.9636 C.ar    
  13 C13            0.1597    -4.2905    -0.8851 C.ar    
  14 C14           -0.0467    -4.9956     0.2925 C.ar    
  15 C15           -0.6093    -4.3614     1.3915 C.ar    
  16 C16           -0.9603    -3.0207     1.3146 C.ar    
  17 O17           -5.6484    -1.9711    -0.5424 O.2     
  18 N18           -4.4512     2.4513    -0.4766 N.pl3   
  19 C19           -4.3766     3.1235    -1.7022 C.ar    
  20 C20           -4.0609     2.4261    -2.8598 C.ar    
  21 C21           -3.9879     3.0920    -4.0683 C.ar    
  22 C22           -4.2283     4.4526    -4.1263 C.ar    
  23 C23           -4.5433     5.1523    -2.9748 C.ar    
  24 C24           -4.6242     4.4910    -1.7634 C.ar    
  25 O25            0.9807    -0.3609     0.3289 O.2     
  26 C26            0.6469     2.2630     0.2246 C.3     
  27 O27           -1.9440     2.9380    -0.1396 O.2     
  28 C28            1.7246     2.2587    -0.8613 C.3     
  29 C29            0.7077     3.4000    -0.7973 C.3     
  30 C30           -6.4649     0.5657    -0.7111 C.3     
  31 I31           -4.1146     5.4569    -5.9614 I       
  32 C32           -3.1152    -3.0309    -0.1712 C.3     
  33 F33           -4.9322     5.1738    -0.6391 F       
  34 N34            0.7264    -4.9298    -1.9932 N.am    
  35 C35            0.3427    -4.5862    -3.2386 C.2     
  36 C36            1.0233    -5.2023    -4.4337 C.3     
  37 N37           -0.8177    -5.0723     2.5786 N.am    
  38 C38           -1.0931    -6.3909     2.5350 C.2     
  39 C39           -1.4358    -7.1314     3.8019 C.3     
  40 O40           -0.5504    -3.7812    -3.3976 O.2     
  41 O41           -1.0651    -6.9815     1.4760 O.2     
  42 H42           -0.0364    -2.4028    -1.8801 H       
  43 H43            0.2302    -6.0377     0.3536 H       
  44 H44           -1.3981    -2.5273     2.1697 H       
  45 H45           -4.7445     2.9234     0.3184 H       
  46 H46           -3.8722     1.3636    -2.8161 H       
  47 H47           -3.7422     2.5491    -4.9691 H       
  48 H48           -4.7302     6.2149    -3.0232 H       
  49 H49            0.9609     2.4852     1.2445 H       
  50 H50            2.7476     2.4783    -0.5560 H       
  51 H51            1.6203     1.5365    -1.6710 H       
  52 H52           -0.0656     3.4287    -1.5649 H       
  53 H53            1.0618     4.3706    -0.4499 H       
  54 H54           -7.1021    -0.3184    -0.6867 H       
  55 H55           -6.7645     1.2515     0.0814 H       
  56 H56           -6.5666     1.0603    -1.6771 H       
  57 H57           -3.0654    -3.3375     0.8736 H       
  58 H58           -3.8906    -3.6027    -0.6811 H       
  59 H59           -2.1536    -3.2153    -0.6502 H       
  60 H60            1.3955    -5.6203    -1.8650 H       
  61 H61            0.4992    -6.1141    -4.7204 H       
  62 H62            1.0068    -4.4972    -5.2648 H       
  63 H63            2.0562    -5.4414    -4.1804 H       
  64 H64           -0.7640    -4.6160     3.4329 H       
  65 H65           -2.5134    -7.0973     3.9625 H       
  66 H66           -1.1141    -8.1691     3.7146 H       
  67 H67           -0.9279    -6.6632     4.6451 H       
@<TRIPOS>BOND
   1    1    2 am
   2    1   26 1
   3    1    6 am
   4    2    3 am
   5    2   25 2
   6    3    4 1
   7    3   11 1
   8    4    5 1
   9    4    7 2
  10    5    6 1
  11    5   10 2
  12    6   27 2
  13    7    8 1
  14    7   32 1
  15    8    9 am
  16    8   17 2
  17    9   10 1
  18    9   30 1
  19   10   18 1
  20   11   12 ar
  21   11   16 ar
  22   12   13 ar
  23   12   42 1
  24   13   14 ar
  25   13   34 1
  26   14   15 ar
  27   14   43 1
  28   15   16 ar
  29   15   37 1
  30   16   44 1
  31   18   19 1
  32   18   45 1
  33   19   20 ar
  34   19   24 ar
  35   20   21 ar
  36   20   46 1
  37   21   22 ar
  38   21   47 1
  39   22   23 ar
  40   22   31 1
  41   23   24 ar
  42   23   48 1
  43   24   33 1
  44   26   28 1
  45   26   29 1
  46   26   49 1
  47   28   29 1
  48   28   50 1
  49   28   51 1
  50   29   52 1
  51   29   53 1
  52   30   54 1
  53   30   55 1
  54   30   56 1
  55   32   57 1
  56   32   58 1
  57   32   59 1
  58   34   35 am
  59   34   60 1
  60   35   36 1
  61   35   40 2
  62   36   61 1
  63   36   62 1
  64   36   63 1
  65   37   38 am
  66   37   64 1
  67   38   39 1
  68   38   41 2
  69   39   65 1
  70   39   66 1
  71   39   67 1

#	End of record

