#	Name: ASD02030093
#	Creating user name:	WinNT
#	Creation time:	15. 06. 2019 20:14

#	Modifying user name:	WinNT
#	Modification time:	15. 06. 2019 20:14

#	Program:	/corina/corina34_cracker 3.40 0067  02.08.2006

@<TRIPOS>MOLECULE
ASD02030093
  57   60    0    0    0
SMALL
NO_CHARGES


@<TRIPOS>ATOM
   1 N1            -2.0911     1.3812    -0.6934 N.am    
   2 C2            -2.1508     0.0409    -0.8214 C.2     
   3 N3            -1.2179    -0.7344    -0.2339 N.am    
   4 C4            -1.3386    -2.1224    -0.2749 C.ar    
   5 O5            -3.0461    -0.4689    -1.4669 O.2     
   6 C6            -2.5996    -2.7105    -0.2516 C.ar    
   7 C7            -2.7225    -4.0807    -0.2925 C.ar    
   8 C8            -1.5785    -4.8820    -0.3575 C.ar    
   9 C9            -0.3132    -4.2876    -0.3807 C.ar    
  10 C10           -0.1980    -2.9165    -0.3449 C.ar    
  11 C11           -1.7062    -6.3503    -0.4010 C.2     
  12 O12           -0.6026    -7.1210    -0.4636 O.3     
  13 O13           -2.8065    -6.8653    -0.3803 O.2     
  14 C14           -0.8038    -8.5584    -0.5035 C.3     
  15 C15           -0.7932    -9.1473     0.9290 C.3     
  16 C16           -0.4069   -10.6276     0.6872 C.3     
  17 C17            0.6350   -10.5660    -0.4487 C.3     
  18 C18            0.3827    -9.2503    -1.2058 C.3     
  19 N19            0.0438    -9.5324    -2.6029 N.am    
  20 C20            1.0229    -9.6801    -3.5172 C.2     
  21 O21            2.1868    -9.5793    -3.1828 O.2     
  22 C22            0.6802    -9.9652    -4.9300 C.ar    
  23 C23            1.6804   -10.1220    -5.8944 C.ar    
  24 C24            1.3160   -10.3876    -7.2002 C.ar    
  25 N25            0.0469   -10.4928    -7.5408 N.ar    
  26 C26           -0.9267   -10.3521    -6.6634 C.ar    
  27 C27           -0.6521   -10.0909    -5.3349 C.ar    
  28 C28           -2.9923     2.1916    -1.3930 C.ar    
  29 C29           -3.4318     3.3853    -0.8358 C.ar    
  30 C30           -4.3212     4.1829    -1.5287 C.ar    
  31 C31           -4.7745     3.7938    -2.7758 C.ar    
  32 C32           -4.3387     2.6058    -3.3334 C.ar    
  33 C33           -3.4445     1.8067    -2.6482 C.ar    
  34 H34           -1.4261     1.7839    -0.1134 H       
  35 H35           -0.4625    -0.3264     0.2176 H       
  36 H36           -3.4828    -2.0910    -0.2011 H       
  37 H37           -3.7015    -4.5365    -0.2741 H       
  38 H38            0.5726    -4.9035    -0.4306 H       
  39 H39            0.7790    -2.4567    -0.3632 H       
  40 H40           -1.7403    -8.7977    -1.0075 H       
  41 H41           -0.0456    -8.6488     1.5460 H       
  42 H42           -1.7813    -9.0752     1.3836 H       
  43 H43            0.0337   -11.0586     1.5862 H       
  44 H44           -1.2783   -11.2031     0.3747 H       
  45 H45            1.6423   -10.5697    -0.0321 H       
  46 H46            0.5054   -11.4143    -1.1208 H       
  47 H47            1.2674    -8.6156    -1.1566 H       
  48 H48           -0.8853    -9.6128    -2.8699 H       
  49 H49            2.7221   -10.0365    -5.6226 H       
  50 H50            2.0812   -10.5103    -7.9523 H       
  51 H51           -1.9528   -10.4465    -6.9867 H       
  52 H52           -1.4549    -9.9771    -4.6214 H       
  53 H53           -3.0787     3.6894     0.1385 H       
  54 H54           -4.6634     5.1114    -1.0959 H       
  55 H55           -5.4706     4.4189    -3.3154 H       
  56 H56           -4.6946     2.3046    -4.3076 H       
  57 H57           -3.1046     0.8789    -3.0842 H       
@<TRIPOS>BOND
   1    1    2 am
   2    1   28 1
   3    1   34 1
   4    2    3 am
   5    2    5 2
   6    3    4 1
   7    3   35 1
   8    4    6 ar
   9    4   10 ar
  10    6    7 ar
  11    6   36 1
  12    7    8 ar
  13    7   37 1
  14    8    9 ar
  15    8   11 1
  16    9   10 ar
  17    9   38 1
  18   10   39 1
  19   11   12 1
  20   11   13 2
  21   12   14 1
  22   14   15 1
  23   14   18 1
  24   14   40 1
  25   15   16 1
  26   15   41 1
  27   15   42 1
  28   16   17 1
  29   16   43 1
  30   16   44 1
  31   17   18 1
  32   17   45 1
  33   17   46 1
  34   18   19 1
  35   18   47 1
  36   19   20 am
  37   19   48 1
  38   20   21 2
  39   20   22 1
  40   22   23 ar
  41   22   27 ar
  42   23   24 ar
  43   23   49 1
  44   24   25 ar
  45   24   50 1
  46   25   26 ar
  47   26   27 ar
  48   26   51 1
  49   27   52 1
  50   28   29 ar
  51   28   33 ar
  52   29   30 ar
  53   29   53 1
  54   30   31 ar
  55   30   54 1
  56   31   32 ar
  57   31   55 1
  58   32   33 ar
  59   32   56 1
  60   33   57 1

#	End of record

