#	Name: ASD01882701
#	Creating user name:	WinNT
#	Creation time:	15. 06. 2019 19:45

#	Modifying user name:	WinNT
#	Modification time:	15. 06. 2019 19:45

#	Program:	/corina/corina34_cracker 3.40 0067  02.08.2006

@<TRIPOS>MOLECULE
ASD01882701
  63   67    0    0    0
SMALL
NO_CHARGES


@<TRIPOS>ATOM
   1 N1            -0.9884     2.4638     1.3853 N.ar    
   2 C2            -0.6793     1.2444     0.9731 C.ar    
   3 C3             0.6461     0.8644     0.7907 C.ar    
   4 C4             1.6537     1.7795     1.0451 C.ar    
   5 C5            -0.0535     3.3669     1.6391 C.ar    
   6 N6            -0.1040     4.6859     2.0716 N.am    
   7 C7             1.2966     3.0503     1.4757 C.ar    
   8 N8             2.0250     4.1895     1.8156 N.am    
   9 C9             1.1540     5.1542     2.1684 C.2     
  10 C10           -1.3229     5.4409     2.3721 C.3     
  11 C11            3.4844     4.3152     1.7933 C.3     
  12 C12            3.9330     4.8057     0.4153 C.3     
  13 C13            3.2994     6.1683     0.1278 C.3     
  14 C14            5.4572     4.9369     0.3920 C.3     
  15 C15            3.4912     3.8024    -0.6520 C.3     
  16 N16           -1.6961     0.3284     0.7188 N.3     
  17 O17            1.4582     6.2785     2.5210 O.2     
  18 C18           -4.1052    -0.0799     0.5619 C.3     
  19 N19           -3.8889    -1.2907     1.3814 N.am    
  20 C20           -2.7388    -1.2271     2.3094 C.3     
  21 C21           -1.4896    -0.9102     1.4770 C.3     
  22 C22           -3.0147     0.9226     0.9714 C.3     
  23 C23           -2.9839    -0.0583     3.2742 C.3     
  24 C24           -3.1542     1.2296     2.4647 C.3     
  25 C25           -4.6836    -2.3754     1.2901 C.2     
  26 C26           -5.8794    -2.3447     0.4213 C.ar    
  27 C27           -5.7866    -1.8531    -0.8817 C.ar    
  28 C28           -6.9062    -1.8277    -1.6875 C.ar    
  29 C29           -8.1191    -2.2877    -1.2063 C.ar    
  30 C30           -8.2179    -2.7764     0.0843 C.ar    
  31 C31           -7.1047    -2.8126     0.8985 C.ar    
  32 O32           -4.4171    -3.3789     1.9221 O.2     
  33 H33            0.8867    -0.1334     0.4547 H       
  34 H34            2.6915     1.5113     0.9122 H       
  35 H35           -1.5818     5.3098     3.4227 H       
  36 H36           -1.1547     6.4985     2.1686 H       
  37 H37           -2.1392     5.0764     1.7485 H       
  38 H38            3.7992     5.0299     2.5537 H       
  39 H39            3.9358     3.3444     1.9981 H       
  40 H40            3.6142     6.8831     0.8882 H       
  41 H41            3.6190     6.5178    -0.8539 H       
  42 H42            2.2135     6.0748     0.1444 H       
  43 H43            5.9087     3.9662     0.5968 H       
  44 H44            5.7769     5.2864    -0.5897 H       
  45 H45            5.7720     5.6517     1.1523 H       
  46 H46            2.4053     3.7089    -0.6354 H       
  47 H47            3.8108     4.1519    -1.6337 H       
  48 H48            3.9426     2.8317    -0.4472 H       
  49 H49           -4.0109    -0.3231    -0.4964 H       
  50 H50           -5.0916     0.3373     0.7644 H       
  51 H51           -2.6196    -2.1687     2.8453 H       
  52 H52           -1.2977    -1.7304     0.7852 H       
  53 H53           -0.6332    -0.7900     2.1405 H       
  54 H54           -3.1215     1.8379     0.3892 H       
  55 H55           -3.8876    -0.2471     3.8536 H       
  56 H56           -2.1324     0.0438     3.9470 H       
  57 H57           -2.3893     1.9477     2.7604 H       
  58 H58           -4.1406     1.6515     2.6576 H       
  59 H59           -4.8406    -1.4930    -1.2583 H       
  60 H60           -6.8357    -1.4475    -2.6959 H       
  61 H61           -8.9927    -2.2650    -1.8409 H       
  62 H62           -9.1676    -3.1340     0.4539 H       
  63 H63           -7.1831    -3.1946     1.9057 H       
@<TRIPOS>BOND
   1    1    2 ar
   2    1    5 ar
   3    2    3 ar
   4    2   16 1
   5    3    4 ar
   6    3   33 1
   7    4    7 ar
   8    4   34 1
   9    5    7 ar
  10    5    6 1
  11    6    9 am
  12    6   10 1
  13    7    8 1
  14    8    9 am
  15    8   11 1
  16    9   17 2
  17   10   35 1
  18   10   36 1
  19   10   37 1
  20   11   12 1
  21   11   38 1
  22   11   39 1
  23   12   13 1
  24   12   14 1
  25   12   15 1
  26   13   40 1
  27   13   41 1
  28   13   42 1
  29   14   43 1
  30   14   44 1
  31   14   45 1
  32   15   46 1
  33   15   47 1
  34   15   48 1
  35   16   22 1
  36   16   21 1
  37   18   19 1
  38   18   22 1
  39   18   49 1
  40   18   50 1
  41   19   20 1
  42   19   25 am
  43   20   21 1
  44   20   23 1
  45   20   51 1
  46   21   52 1
  47   21   53 1
  48   22   24 1
  49   22   54 1
  50   23   24 1
  51   23   55 1
  52   23   56 1
  53   24   57 1
  54   24   58 1
  55   25   26 1
  56   25   32 2
  57   26   27 ar
  58   26   31 ar
  59   27   28 ar
  60   27   59 1
  61   28   29 ar
  62   28   60 1
  63   29   30 ar
  64   29   61 1
  65   30   31 ar
  66   30   62 1
  67   31   63 1

#	End of record

