#	Name: ASD02560270
#	Creating user name:	WinNT
#	Creation time:	15. 06. 2019 20:25

#	Modifying user name:	WinNT
#	Modification time:	15. 06. 2019 20:25

#	Program:	/corina/corina34_cracker 3.40 0067  02.08.2006

@<TRIPOS>MOLECULE
ASD02560270
  36   38    0    0    0
SMALL
NO_CHARGES


@<TRIPOS>ATOM
   1 C1             0.0085     1.3193     0.2507 C.2     
   2 O2             0.0158    -0.0227     0.1332 O.3     
   3 C3            -1.2738    -0.4079     0.1176 C.2     
   4 N4            -2.0044     0.6752     0.2227 N.2     
   5 N5            -1.2337     1.7019     0.3066 N.2     
   6 N6            -1.7414    -1.7058     0.0102 N.pl3   
   7 C7             1.2194     2.2142     0.3127 C.3     
   8 C8             1.1838     3.1880    -0.8369 C.ar    
   9 C9             2.2106     3.2021    -1.7637 C.ar    
  10 C10            2.1771     4.0961    -2.8193 C.ar    
  11 C11            1.1180     4.9748    -2.9477 C.ar    
  12 C12            0.0920     4.9615    -2.0216 C.ar    
  13 C13            0.1215     4.0641    -0.9689 C.ar    
  14 C14           -3.1047    -1.9671     0.1279 C.ar    
  15 C15           -3.9016    -1.1512     0.9255 C.ar    
  16 C16           -5.2491    -1.4065     1.0441 C.ar    
  17 C17           -5.8169    -2.4866     0.3617 C.ar    
  18 C18           -5.0135    -3.3039    -0.4390 C.ar    
  19 C19           -3.6676    -3.0399    -0.5569 C.ar    
  20 Cl20           3.5412     2.0989    -1.6023 Cl      
  21 Cl21          -1.1675     4.0471     0.1938 Cl      
  22 C22            1.2167     2.9851     1.6343 C.3     
  23 C23           -7.2182    -2.7554     0.4831 C.1     
  24 N24           -8.3298    -2.9687     0.5793 N.1     
  25 H25           -1.1198    -2.4337    -0.1470 H       
  26 H26            2.1229     1.6080     0.2475 H       
  27 H27            2.9789     4.1074    -3.5428 H       
  28 H28            1.0923     5.6724    -3.7718 H       
  29 H29           -0.7350     5.6488    -2.1221 H       
  30 H30           -3.4623    -0.3170     1.4524 H       
  31 H31           -5.8668    -0.7734     1.6637 H       
  32 H32           -5.4489    -4.1390    -0.9675 H       
  33 H33           -3.0464    -3.6709    -1.1753 H       
  34 H34            1.2425     2.2808     2.4658 H       
  35 H35            2.0926     3.6324     1.6792 H       
  36 H36            0.3132     3.5913     1.6995 H       
@<TRIPOS>BOND
   1    1    2 1
   2    1    7 1
   3    1    5 2
   4    2    3 1
   5    3    4 2
   6    3    6 1
   7    4    5 1
   8    6   14 1
   9    6   25 1
  10    7    8 1
  11    7   22 1
  12    7   26 1
  13    8    9 ar
  14    8   13 ar
  15    9   10 ar
  16    9   20 1
  17   10   11 ar
  18   10   27 1
  19   11   12 ar
  20   11   28 1
  21   12   13 ar
  22   12   29 1
  23   13   21 1
  24   14   15 ar
  25   14   19 ar
  26   15   16 ar
  27   15   30 1
  28   16   17 ar
  29   16   31 1
  30   17   18 ar
  31   17   23 1
  32   18   19 ar
  33   18   32 1
  34   19   33 1
  35   22   34 1
  36   22   35 1
  37   22   36 1
  38   23   24 3

#	End of record

