#	Name: ASD06590003
#	Creating user name:	WinNT
#	Creation time:	15. 06. 2019 21:06

#	Modifying user name:	WinNT
#	Modification time:	15. 06. 2019 21:06

#	Program:	/corina/corina34_cracker 3.40 0067  02.08.2006

@<TRIPOS>MOLECULE
ASD06590003
 251  253    0    0    0
SMALL
NO_CHARGES


@<TRIPOS>ATOM
   1 C1            -0.6205     8.7594    -2.3831 C.2     
   2 O2            -0.2159     7.6192    -2.2983 O.2     
   3 N3             1.7100     9.4441    -2.4530 N.3     
   4 C4             0.3330     9.8733    -2.7314 C.3     
   5 C5             0.1960    10.2162    -4.2162 C.3     
   6 C6             1.0714    11.4278    -4.5426 C.3     
   7 C7             0.9345    11.7708    -6.0274 C.3     
   8 N8             1.7727    12.9309    -6.3400 N.pl3   
   9 C9             1.8121    13.4248    -7.6220 C.2     
  10 N10            1.2073    12.7888    -8.5835 N.2     
  11 N11            2.4936    14.5963    -7.8903 N.am    
  12 C12           -4.2491     8.3390    -2.2438 C.2     
  13 O13           -4.4500     9.4182    -2.7596 O.2     
  14 N14           -1.9238     9.0296    -2.1714 N.am    
  15 C15           -2.8518     7.9459    -1.8387 C.3     
  16 C16           -2.8121     7.6851    -0.3316 C.3     
  17 C17           -1.4270     7.1663     0.0598 C.3     
  18 C18           -1.3873     6.9054     1.5669 C.3     
  19 N19           -0.0610     6.4087     1.9417 N.pl3   
  20 C20            0.2130     6.1030     3.2539 C.2     
  21 N21            1.3930     5.6610     3.5873 N.2     
  22 N22           -0.7576     6.2635     4.2142 N.pl3   
  23 C23           -7.6316     7.1182    -1.5871 C.2     
  24 O24           -7.2460     6.3374    -0.7430 O.2     
  25 N25           -5.2755     7.4914    -2.0329 N.am    
  26 C26           -6.6339     7.8736    -2.4267 C.3     
  27 C27           -6.8507     7.5365    -3.9032 C.3     
  28 C28           -5.9228     8.3958    -4.7642 C.3     
  29 C29           -6.0488     7.9724    -6.2290 C.3     
  30 C30           -6.3147     9.8681    -4.6234 C.3     
  31 C31          -11.2266     6.4661    -1.7052 C.2     
  32 O32          -11.3352     6.9535    -2.8104 O.2     
  33 N33           -8.9524     7.3102    -1.7744 N.am    
  34 C34           -9.9223     6.5758    -0.9582 C.3     
  35 C35          -10.1497     7.3216     0.3582 C.3     
  36 C36           -8.8742     7.3242     1.1608 C.2     
  37 C37           -8.2455     8.4127     1.6441 C.2     
  38 N38           -7.1347     7.9664     2.3078 N.pl3   
  39 C39           -7.1232     6.6198     2.2070 C.2     
  40 N40           -8.1692     6.2425     1.5239 N.2     
  41 C41          -14.6693     5.5479    -0.8879 C.2     
  42 O42          -14.4376     5.5174     0.3022 O.2     
  43 N43          -12.2723     5.8265    -1.1450 N.am    
  44 C44          -13.5402     5.7200    -1.8711 C.3     
  45 C45          -13.4913     4.5114    -2.8081 C.3     
  46 O46          -13.3964     3.3131    -2.0354 O.3     
  47 C47          -18.1851     4.5600    -1.0497 C.2     
  48 O48          -18.1568     4.3606    -2.2457 O.2     
  49 N49          -15.9364     5.4281    -1.3311 N.am    
  50 C50          -17.0340     5.2608    -0.3753 C.3     
  51 C51          -17.4926     6.6339     0.1201 C.3     
  52 C52          -16.3194     7.3524     0.7896 C.3     
  53 O53          -17.9568     7.4090    -0.9870 O.3     
  54 C54          -21.6308     3.7450    -0.1412 C.2     
  55 O55          -21.5497     4.3321     0.9169 O.2     
  56 N56          -19.2459     4.1548    -0.3239 N.am    
  57 C57          -20.4015     3.5495    -0.9906 C.3     
  58 C58          -20.1505     2.0531    -1.1878 C.3     
  59 C59          -18.9781     1.8552    -2.1507 C.3     
  60 C60          -18.7271     0.3588    -2.3478 C.3     
  61 N61          -17.6045     0.1693    -3.2698 N.pl3   
  62 C62          -17.1931    -1.1002    -3.6002 C.2     
  63 N63          -16.1943    -1.2689    -4.4205 N.2     
  64 N64          -17.8352    -2.1919    -3.0654 N.pl3   
  65 C65          -24.1528     2.0712     1.0807 C.2     
  66 O66          -23.3648     1.1647     0.9127 O.2     
  67 N67          -22.8204     3.2673    -0.5574 N.am    
  68 C68          -23.9930     3.3599     0.3160 C.3     
  69 C69          -25.2422     3.6080    -0.5319 C.3     
  70 C70          -25.1546     4.9711    -1.1685 C.2     
  71 O71          -24.2416     5.7165    -0.8824 O.2     
  72 N72          -26.0908     5.3620    -2.0557 N.am    
  73 C73          -26.7699     0.5008     3.0925 C.2     
  74 O74          -27.5882     1.3416     2.7854 O.2     
  75 N75          -25.1714     1.9260     1.9512 N.am    
  76 C76          -25.3267     0.6732     2.6946 C.3     
  77 C77          -24.4529     0.7133     3.9499 C.3     
  78 C78          -23.0008     0.7621     3.5498 C.ar    
  79 C79          -22.3784     1.9817     3.3579 C.ar    
  80 C80          -21.0475     2.0291     2.9907 C.ar    
  81 C81          -20.3353     0.8516     2.8149 C.ar    
  82 O82          -19.0258     0.8956     2.4541 O.3     
  83 C83          -20.9620    -0.3709     3.0085 C.ar    
  84 C84          -22.2917    -0.4128     3.3807 C.ar    
  85 C85          -28.6374    -1.6370     5.3958 C.2     
  86 O86          -27.6244    -2.0816     5.8928 O.2     
  87 N87          -27.1514    -0.5878     3.7897 N.am    
  88 C88          -28.5544    -0.7554     4.1765 C.3     
  89 C89          -29.3269    -1.4028     3.0254 C.3     
  90 C90          -28.7185    -2.7703     2.7083 C.3     
  91 C91          -29.5653    -3.4709     1.6439 C.3     
  92 C92          -29.2426    -0.5076     1.7875 C.3     
  93 C93          -29.9154    -4.2345     6.6949 C.2     
  94 O94          -29.8525    -4.5199     5.5225 O.2     
  95 N95          -29.8375    -1.9315     5.9340 N.am    
  96 C96          -29.9182    -2.7886     7.1194 C.3     
  97 C97          -31.2088    -2.4835     7.8824 C.3     
  98 C98          -31.1577    -1.0738     8.4125 C.2     
  99 C99          -32.0728    -0.1110     8.1903 C.2     
 100 N100         -31.6407     1.0064     8.8523 N.pl3   
 101 C101         -30.4758     0.6875     9.4565 C.2     
 102 N102         -30.1957    -0.5596     9.1932 N.2     
 103 O103         -29.9829    -5.2055     7.6192 O.3     
 104 C104           3.0157    15.3188    -6.8794 C.2     
 105 O105           2.9637    14.8980    -5.7434 O.2     
 106 C106          11.8173    30.3629     0.0052 C.3     
 107 C107          11.1589    29.0117     0.2911 C.3     
 108 C108          10.6526    28.4039    -1.0185 C.3     
 109 C109           9.9942    27.0527    -0.7327 C.3     
 110 C110           9.4878    26.4448    -2.0423 C.3     
 111 C111           8.8295    25.0936    -1.7564 C.3     
 112 C112           8.3231    24.4858    -3.0660 C.3     
 113 C113           7.6647    23.1346    -2.7802 C.3     
 114 C114           7.1584    22.5268    -4.0898 C.3     
 115 C115           6.5000    21.1756    -3.8039 C.3     
 116 C116           5.9936    20.5678    -5.1135 C.3     
 117 C117           5.3353    19.2166    -4.8276 C.3     
 118 C118           4.8289    18.6087    -6.1372 C.3     
 119 C119           4.1705    17.2575    -5.8514 C.3     
 120 C120           3.6642    16.6497    -7.1610 C.3     
 121 H121           1.8433     9.2736    -1.4675 H       
 122 H122           1.9518     8.6294    -2.9969 H       
 123 H123           0.0984    10.7530    -2.1322 H       
 124 H124           0.5157     9.3646    -4.8168 H       
 125 H125          -0.8449    10.4490    -4.4409 H       
 126 H126           0.7518    12.2794    -3.9421 H       
 127 H127           2.1123    11.1951    -4.3180 H       
 128 H128           1.2542    10.9192    -6.6280 H       
 129 H129          -0.1064    12.0035    -6.2521 H       
 130 H130           2.2999    13.3505    -5.6422 H       
 131 H131           1.1729    13.1737    -9.4732 H       
 132 H132           2.5963    14.8988    -8.8061 H       
 133 H133          -2.2474     9.9415    -2.2392 H       
 134 H134          -2.5600     7.0411    -2.3718 H       
 135 H135          -3.0172     8.6125     0.2032 H       
 136 H136          -3.5654     6.9415    -0.0716 H       
 137 H137          -1.2219     6.2389    -0.4749 H       
 138 H138          -0.6736     7.9099    -0.2002 H       
 139 H139          -1.5924     7.8328     2.1017 H       
 140 H140          -2.1406     6.1618     1.8269 H       
 141 H141           0.6238     6.2954     1.2642 H       
 142 H142           1.5863     5.4454     4.5131 H       
 143 H143          -1.6357     6.5925     3.9660 H       
 144 H144          -0.5643     6.0479     5.1400 H       
 145 H145          -5.1149     6.6284    -1.6203 H       
 146 H146          -6.7684     8.9446    -2.2750 H       
 147 H147          -6.6297     6.4824    -4.0715 H       
 148 H148          -7.8872     7.7380    -4.1735 H       
 149 H149          -4.8927     8.2609    -4.4343 H       
 150 H150          -7.0789     8.1073    -6.5589 H       
 151 H151          -5.3877     8.5846    -6.8424 H       
 152 H152          -5.7696     6.9235    -6.3293 H       
 153 H153          -6.2249    10.1698    -3.5798 H       
 154 H154          -5.6536    10.4803    -5.2368 H       
 155 H155          -7.3448    10.0030    -4.9533 H       
 156 H156          -9.2608     7.9346    -2.4495 H       
 157 H157          -9.5387     5.5773    -0.7486 H       
 158 H158         -10.4483     8.3484     0.1472 H       
 159 H159         -10.9355     6.8242     0.9266 H       
 160 H160          -8.5576     9.4403     1.5296 H       
 161 H161          -6.4784     8.5150     2.7652 H       
 162 H162          -6.3746     5.9636     2.6257 H       
 163 H163         -12.1854     5.4367    -0.2610 H       
 164 H164         -13.7018     6.6261    -2.4550 H       
 165 H165         -14.3981     4.4832    -3.4123 H       
 166 H166         -12.6222     4.5927    -3.4608 H       
 167 H167         -13.3610     2.5051    -2.5654 H       
 168 H168         -16.1217     5.4525    -2.2829 H       
 169 H169         -16.6914     4.6651     0.4708 H       
 170 H170         -18.3010     6.5089     0.8405 H       
 171 H171         -15.5564     7.5753     0.0438 H       
 172 H172         -16.6708     8.2814     1.2387 H       
 173 H173         -15.8952     6.7126     1.5634 H       
 174 H174         -18.7015     7.0129    -1.4598 H       
 175 H175         -19.2443     4.2640     0.6399 H       
 176 H176         -20.5509     4.0237    -1.9606 H       
 177 H177         -19.9134     1.5949    -0.2276 H       
 178 H178         -21.0440     1.5864    -1.6024 H       
 179 H179         -19.2151     2.3134    -3.1108 H       
 180 H180         -18.0846     2.3220    -1.7360 H       
 181 H181         -18.4900    -0.0994    -1.3876 H       
 182 H182         -19.6206    -0.1079    -2.7624 H       
 183 H183         -17.1514     0.9395    -3.6471 H       
 184 H184         -15.9041    -2.1646    -4.6537 H       
 185 H185         -18.5785    -2.0664    -2.4549 H       
 186 H186         -17.5450    -3.0876    -3.2985 H       
 187 H187         -22.9002     2.8623    -1.4351 H       
 188 H188         -23.8600     4.1841     1.0168 H       
 189 H189         -25.3102     2.8474    -1.3098 H       
 190 H190         -26.1273     3.5593     0.1022 H       
 191 H191         -26.8210     4.7658    -2.2846 H       
 192 H192         -26.0345     6.2394    -2.4654 H       
 193 H193         -25.8016     2.6510     2.0856 H       
 194 H194         -25.0208    -0.1628     2.0656 H       
 195 H195         -24.6984     1.5994     4.5353 H       
 196 H196         -24.6351    -0.1794     4.5482 H       
 197 H197         -22.9332     2.8981     3.4949 H       
 198 H198         -20.5619     2.9820     2.8403 H       
 199 H199         -18.4126     0.9228     3.2013 H       
 200 H200         -20.4098    -1.2889     2.8719 H       
 201 H201         -22.7788    -1.3641     3.5358 H       
 202 H202         -26.4969    -1.2603     4.0353 H       
 203 H203         -28.9879     0.2189     4.4024 H       
 204 H204         -30.3708    -1.5275     3.3132 H       
 205 H205         -27.7027    -2.6384     2.3357 H       
 206 H206         -28.6975    -3.3773     3.6134 H       
 207 H207         -29.1318    -4.4451     1.4180 H       
 208 H208         -30.5811    -3.6027     2.0165 H       
 209 H209         -29.5862    -2.8638     0.7388 H       
 210 H210         -29.7930    -0.9689     0.9674 H       
 211 H211         -29.6761     0.4666     2.0134 H       
 212 H212         -28.1987    -0.3830     1.4997 H       
 213 H213         -30.6477    -1.5759     5.5366 H       
 214 H214         -29.0608    -2.5978     7.7648 H       
 215 H215         -32.0612    -2.5886     7.2112 H       
 216 H216         -31.3128    -3.1807     8.7138 H       
 217 H217         -32.9741    -0.2029     7.6024 H       
 218 H218         -32.0878     1.8668     8.8819 H       
 219 H219         -29.8773     1.3530    10.0608 H       
 220 H220         -29.9782    -6.1179     7.2987 H       
 221 H221          12.1780    30.7959     0.9382 H       
 222 H222          12.6551    30.2216    -0.6776 H       
 223 H223          11.0878    31.0337    -0.4486 H       
 224 H224          11.8884    28.3408     0.7448 H       
 225 H225          10.3212    29.1529     0.9739 H       
 226 H226           9.9231    29.0747    -1.4723 H       
 227 H227          11.4903    28.2626    -1.7014 H       
 228 H228          10.7237    26.3818    -0.2789 H       
 229 H229           9.1564    27.1939    -0.0498 H       
 230 H230           8.7583    27.1157    -2.4961 H       
 231 H231          10.3256    26.3036    -2.7251 H       
 232 H232           9.5589    24.4228    -1.3026 H       
 233 H233           7.9917    25.2349    -1.0736 H       
 234 H234           7.5936    25.1567    -3.5198 H       
 235 H235           9.1609    24.3446    -3.7489 H       
 236 H236           8.3942    22.4638    -2.3264 H       
 237 H237           6.8270    23.2759    -2.0973 H       
 238 H238           6.4289    23.1976    -4.5435 H       
 239 H239           7.9961    22.3855    -4.7726 H       
 240 H240           7.2295    20.5047    -3.3501 H       
 241 H241           5.6622    21.3168    -3.1210 H       
 242 H242           5.2642    21.2386    -5.5673 H       
 243 H243           6.8314    20.4265    -5.7963 H       
 244 H244           6.0648    18.5457    -4.3739 H       
 245 H245           4.4975    19.3578    -4.1448 H       
 246 H246           4.0994    19.2796    -6.5910 H       
 247 H247           5.6667    18.4675    -6.8201 H       
 248 H248           4.9000    16.5867    -5.3976 H       
 249 H249           3.3328    17.3988    -5.1685 H       
 250 H250           4.5020    16.5085    -7.8438 H       
 251 H251           2.9347    17.3206    -7.6147 H       
@<TRIPOS>BOND
   1    1    2 2
   2    1    4 1
   3    1   14 am
   4    3    4 1
   5    3  121 1
   6    3  122 1
   7    4    5 1
   8    4  123 1
   9    5    6 1
  10    5  124 1
  11    5  125 1
  12    6    7 1
  13    6  126 1
  14    6  127 1
  15    7    8 1
  16    7  128 1
  17    7  129 1
  18    8    9 1
  19    8  130 1
  20    9   10 2
  21    9   11 1
  22   10  131 1
  23   11  104 am
  24   11  132 1
  25   12   13 2
  26   12   15 1
  27   12   25 am
  28   14   15 1
  29   14  133 1
  30   15   16 1
  31   15  134 1
  32   16   17 1
  33   16  135 1
  34   16  136 1
  35   17   18 1
  36   17  137 1
  37   17  138 1
  38   18   19 1
  39   18  139 1
  40   18  140 1
  41   19   20 1
  42   19  141 1
  43   20   21 2
  44   20   22 1
  45   21  142 1
  46   22  143 1
  47   22  144 1
  48   23   24 2
  49   23   26 1
  50   23   33 am
  51   25   26 1
  52   25  145 1
  53   26   27 1
  54   26  146 1
  55   27   28 1
  56   27  147 1
  57   27  148 1
  58   28   29 1
  59   28   30 1
  60   28  149 1
  61   29  150 1
  62   29  151 1
  63   29  152 1
  64   30  153 1
  65   30  154 1
  66   30  155 1
  67   31   32 2
  68   31   34 1
  69   31   43 am
  70   33   34 1
  71   33  156 1
  72   34   35 1
  73   34  157 1
  74   35   36 1
  75   35  158 1
  76   35  159 1
  77   36   37 2
  78   36   40 1
  79   37   38 1
  80   37  160 1
  81   38   39 1
  82   38  161 1
  83   39   40 2
  84   39  162 1
  85   41   42 2
  86   41   44 1
  87   41   49 am
  88   43   44 1
  89   43  163 1
  90   44   45 1
  91   44  164 1
  92   45   46 1
  93   45  165 1
  94   45  166 1
  95   46  167 1
  96   47   48 2
  97   47   50 1
  98   47   56 am
  99   49   50 1
 100   49  168 1
 101   50   51 1
 102   50  169 1
 103   51   52 1
 104   51   53 1
 105   51  170 1
 106   52  171 1
 107   52  172 1
 108   52  173 1
 109   53  174 1
 110   54   55 2
 111   54   57 1
 112   54   67 am
 113   56   57 1
 114   56  175 1
 115   57   58 1
 116   57  176 1
 117   58   59 1
 118   58  177 1
 119   58  178 1
 120   59   60 1
 121   59  179 1
 122   59  180 1
 123   60   61 1
 124   60  181 1
 125   60  182 1
 126   61   62 1
 127   61  183 1
 128   62   63 2
 129   62   64 1
 130   63  184 1
 131   64  185 1
 132   64  186 1
 133   65   66 2
 134   65   68 1
 135   65   75 am
 136   67   68 1
 137   67  187 1
 138   68   69 1
 139   68  188 1
 140   69   70 1
 141   69  189 1
 142   69  190 1
 143   70   71 2
 144   70   72 am
 145   72  191 1
 146   72  192 1
 147   73   74 2
 148   73   76 1
 149   73   87 am
 150   75   76 1
 151   75  193 1
 152   76   77 1
 153   76  194 1
 154   77   78 1
 155   77  195 1
 156   77  196 1
 157   78   79 ar
 158   78   84 ar
 159   79   80 ar
 160   79  197 1
 161   80   81 ar
 162   80  198 1
 163   81   82 1
 164   81   83 ar
 165   82  199 1
 166   83   84 ar
 167   83  200 1
 168   84  201 1
 169   85   86 2
 170   85   88 1
 171   85   95 am
 172   87   88 1
 173   87  202 1
 174   88   89 1
 175   88  203 1
 176   89   90 1
 177   89   92 1
 178   89  204 1
 179   90   91 1
 180   90  205 1
 181   90  206 1
 182   91  207 1
 183   91  208 1
 184   91  209 1
 185   92  210 1
 186   92  211 1
 187   92  212 1
 188   93   94 2
 189   93   96 1
 190   93  103 1
 191   95   96 1
 192   95  213 1
 193   96   97 1
 194   96  214 1
 195   97   98 1
 196   97  215 1
 197   97  216 1
 198   98   99 2
 199   98  102 1
 200   99  100 1
 201   99  217 1
 202  100  101 1
 203  100  218 1
 204  101  102 2
 205  101  219 1
 206  103  220 1
 207  104  105 2
 208  104  120 1
 209  106  107 1
 210  106  221 1
 211  106  222 1
 212  106  223 1
 213  107  108 1
 214  107  224 1
 215  107  225 1
 216  108  109 1
 217  108  226 1
 218  108  227 1
 219  109  110 1
 220  109  228 1
 221  109  229 1
 222  110  111 1
 223  110  230 1
 224  110  231 1
 225  111  112 1
 226  111  232 1
 227  111  233 1
 228  112  113 1
 229  112  234 1
 230  112  235 1
 231  113  114 1
 232  113  236 1
 233  113  237 1
 234  114  115 1
 235  114  238 1
 236  114  239 1
 237  115  116 1
 238  115  240 1
 239  115  241 1
 240  116  117 1
 241  116  242 1
 242  116  243 1
 243  117  118 1
 244  117  244 1
 245  117  245 1
 246  118  119 1
 247  118  246 1
 248  118  247 1
 249  119  120 1
 250  119  248 1
 251  119  249 1
 252  120  250 1
 253  120  251 1

#	End of record

