#	Name: ASD02160003
#	Creating user name:	WinNT
#	Creation time:	15. 06. 2019 20:18

#	Modifying user name:	WinNT
#	Modification time:	15. 06. 2019 20:18

#	Program:	/corina/corina34_cracker 3.40 0067  02.08.2006

@<TRIPOS>MOLECULE
ASD02160003
 289  296    0    0    0
SMALL
NO_CHARGES


@<TRIPOS>ATOM
   1 C1           -12.9934     4.8189     4.4164 C.3     
   2 C2           -12.2484     3.9891     3.3682 C.3     
   3 N3           -12.2959     6.1083     4.5876 N.am    
   4 C4           -13.0119     4.0768     5.7279 C.2     
   5 O5           -11.9694     3.7476     6.2531 O.2     
   6 N6           -14.1868     3.7791     6.3172 N.am    
   7 C7           -14.2101     2.9631     7.5338 C.3     
   8 C8           -15.6213     2.8799     8.0558 C.2     
   9 O9           -16.5289     3.3667     7.4241 O.2     
  10 O10          -15.8700     2.2649     9.2227 O.3     
  11 S11          -13.1695     2.4612     3.0405 S.3     
  12 C12          -12.0326     1.5187     1.9866 C.3     
  13 C13          -12.3285     0.0464     2.1160 C.2     
  14 N14          -11.9020    -0.8001     1.1399 N.am    
  15 O15          -12.9370    -0.3772     3.0757 O.2     
  16 C16          -12.2120    -2.2321     1.3170 C.3     
  17 C17          -11.2033    -3.0466     0.5470 C.2     
  18 C18          -12.1367    -2.5933     2.8019 C.3     
  19 C19          -10.6969    -2.7990     3.1964 C.2     
  20 C20          -10.0652    -3.9761     3.3275 C.2     
  21 N21           -8.7647    -3.7688     3.6991 N.pl3   
  22 C22           -8.5218    -2.4188     3.8192 C.ar    
  23 C23           -9.7195    -1.7519     3.5035 C.ar    
  24 C24           -7.3973    -1.6747     4.1619 C.ar    
  25 C25           -7.4706    -0.2996     4.1941 C.ar    
  26 C26           -8.6568     0.3536     3.8878 C.ar    
  27 C27           -9.7711    -0.3571     3.5415 C.ar    
  28 N28          -11.0325    -4.3581     0.8767 N.am    
  29 O29          -10.5570    -2.5448    -0.3482 O.2     
  30 C30          -10.0211    -5.1047     0.1003 C.3     
  31 C31           -8.9010    -4.1557    -0.3304 C.3     
  32 C32           -7.6285    -4.4789     0.4551 C.3     
  33 C33           -6.5297    -4.9210    -0.5134 C.3     
  34 C34           -7.1678    -3.2333     1.2147 C.3     
  35 C35           -9.4528    -6.1956     0.9732 C.2     
  36 N36           -8.2547    -6.7456     0.6356 N.am    
  37 O37          -10.0518    -6.5750     1.9571 O.2     
  38 C38           -7.7245    -7.7943     1.5274 C.3     
  39 C39           -8.3307    -9.1464     1.1461 C.3     
  40 C40           -7.9562    -9.4821    -0.2745 C.2     
  41 O41           -7.3886    -8.6641    -0.9590 O.2     
  42 O42           -8.2534   -10.6898    -0.7794 O.3     
  43 C43           -6.2259    -7.8507     1.3730 C.2     
  44 N44           -5.5120    -8.6664     2.1995 N.am    
  45 O45           -5.6662    -7.1833     0.5291 O.2     
  46 C46           -4.0467    -8.6685     2.0123 C.3     
  47 C47           -3.3922    -9.0968     3.3016 C.2     
  48 C48           -3.6736    -9.6481     0.8978 C.3     
  49 C49           -4.2977    -9.1836    -0.4196 C.3     
  50 C50           -4.0129   -10.1991    -1.4961 C.2     
  51 N51           -4.4685    -9.9992    -2.7486 N.am    
  52 O52           -3.3736   -11.1962    -1.2352 O.2     
  53 O53           -4.0644    -9.4511     4.2468 O.2     
  54 N54           -2.0340    -9.0791     3.3855 N.am    
  55 C55           -1.4384    -9.4913     4.6704 C.3     
  56 C56           -0.1141    -8.7929     4.8426 C.2     
  57 C57           -1.2228   -11.0060     4.6724 C.3     
  58 C58           -2.5564   -11.7114     4.4183 C.3     
  59 C59           -0.2293   -11.3812     3.5710 C.3     
  60 C60            0.0819   -12.8770     3.6527 C.3     
  61 N61            0.5469    -8.9210     6.0286 N.am    
  62 O62            0.3555    -8.1293     3.9426 O.2     
  63 C63            1.8334    -8.2042     6.1431 C.3     
  64 C64            2.0706    -7.8479     7.5896 C.2     
  65 C65            1.7841    -6.9267     5.3027 C.3     
  66 C66            0.5361    -6.1218     5.6709 C.3     
  67 C67            3.0326    -6.0864     5.5783 C.3     
  68 N68            3.1542    -7.0862     7.9048 N.am    
  69 O69            1.3114    -8.2318     8.4540 O.2     
  70 C70            3.3536    -6.7574     9.3280 C.3     
  71 C71            4.0996    -5.4510     9.4305 C.2     
  72 C72            4.1668    -7.8654    10.0003 C.3     
  73 C73            3.3718    -9.1455     9.9954 C.2     
  74 C74            2.5924    -9.6053    10.9870 C.2     
  75 N75            2.0300   -10.7984    10.6232 N.pl3   
  76 C76            2.4443   -11.1443     9.3565 C.ar    
  77 C77            3.2978   -10.1212     8.9052 C.ar    
  78 C78            2.1813   -12.2286     8.5255 C.ar    
  79 C79            2.7621   -12.2911     7.2780 C.ar    
  80 C80            3.6087   -11.2819     6.8397 C.ar    
  81 C81            3.8748   -10.2044     7.6365 C.ar    
  82 O82            4.5578    -4.9192     8.4415 O.2     
  83 N83            4.2468    -4.8809    10.6605 N.am    
  84 C84            4.9521    -3.5811    10.7040 C.3     
  85 C85            4.1396    -2.6292    11.5419 C.2     
  86 C86            5.0967    -3.0252     9.2859 C.3     
  87 C87            5.7944    -1.6904     9.3383 C.ar    
  88 C88            7.1650    -1.6332     9.5085 C.ar    
  89 C89            7.8050    -0.4089     9.5565 C.ar    
  90 C90            7.0744     0.7582     9.4340 C.ar    
  91 C91            5.7039     0.7010     9.2629 C.ar    
  92 C92            5.0645    -0.5235     9.2105 C.ar    
  93 O93            2.9882    -2.8952    11.8146 O.2     
  94 N94            4.6929    -1.4743    11.9932 N.am    
  95 C95            3.8448    -0.6394    12.8612 C.3     
  96 C96            4.4848     0.7136    13.0422 C.2     
  97 C97            2.4675    -0.4695    12.2169 C.3     
  98 C98            2.5929     0.3833    10.9807 C.2     
  99 N99            1.5042     0.6491    10.2320 N.am    
 100 O100           3.6736     0.8305    10.6596 O.2     
 101 O101           5.5783     0.9605    12.5793 O.2     
 102 N102           3.7848     1.6504    13.7473 N.am    
 103 C103           4.4276     2.9702    13.9328 C.3     
 104 C104           3.3974     3.8982    14.5258 C.2     
 105 C105           4.8992     3.5127    12.5822 C.3     
 106 O106           2.2426     3.5359    14.6029 O.2     
 107 N107           3.7372     5.1191    14.9694 N.am    
 108 C108           5.0852     5.6900    14.9641 C.3     
 109 C109           5.1003     6.8565    15.9651 C.3     
 110 C110           3.6298     7.1376    16.3040 C.3     
 111 C111           2.8057     6.1022    15.5372 C.3     
 112 C112           2.0380     6.7718    14.4285 C.2     
 113 O113           2.5388     6.9100    13.3326 O.2     
 114 N114           0.7738     7.2207    14.6699 N.am    
 115 C115           0.0702     7.8236    13.5206 C.3     
 116 C116          -1.4132     7.8317    13.7931 C.2     
 117 N117          -2.2192     8.5194    12.9381 N.am    
 118 O118          -1.8751     7.2418    14.7468 O.2     
 119 C119          -3.6729     8.4827    13.1950 C.3     
 120 C120          -4.0036     9.3426    14.4165 C.3     
 121 C121          -3.5600    10.7611    14.1672 C.2     
 122 O122          -3.6620    11.6775    15.1427 O.3     
 123 O123          -3.1125    11.0735    13.0892 O.2     
 124 C124          -4.3775     9.0314    11.9805 C.2     
 125 O125          -3.7343     9.3955    11.0190 O.2     
 126 N126          -5.7355     9.1175    11.9632 N.am    
 127 C127          -6.3335     9.6670    10.7282 C.3     
 128 C128          -7.7250     9.1121    10.5631 C.2     
 129 C129          -5.4777     9.2679     9.5243 C.3     
 130 C130          -5.2103     7.7620     9.5655 C.3     
 131 C131          -6.4822     7.0073     9.1738 C.3     
 132 C132          -4.0892     7.4161     8.5835 C.3     
 133 N133          -8.4257     9.4315     9.4396 N.am    
 134 O134          -8.2107     8.3958    11.4128 O.2     
 135 C135          -9.7878     8.8789     9.3213 C.3     
 136 C136         -10.1303     8.7281     7.8607 C.2     
 137 C137         -10.7856     9.8296     9.9858 C.3     
 138 C138         -10.5095     9.8934    11.4659 C.2     
 139 N139         -10.4518     8.8468    12.3027 N.2     
 140 C140         -10.1928     9.2736    13.5085 C.2     
 141 N141         -10.0764    10.6186    13.4760 N.pl3   
 142 C142         -10.2716    11.0107    12.1791 C.2     
 143 O143          -9.4049     9.1884     7.0046 O.2     
 144 N144         -11.2714     8.0636     7.5218 N.am    
 145 C145         -11.5514     7.9317     6.0770 C.3     
 146 C146         -10.2359     7.9467     5.2957 C.3     
 147 C147          -9.2685     6.9308     5.9064 C.3     
 148 C148          -9.7900     5.5147     5.6544 C.3     
 149 C149          -7.8897     7.0886     5.2623 C.3     
 150 C150         -12.2657     6.6289     5.8435 C.2     
 151 O151         -12.8068     6.0519     6.7629 O.2     
 152 H152         -14.0151     4.9980     4.0816 H       
 153 H153         -12.1586     4.5640     2.4465 H       
 154 H154         -11.2543     3.7414     3.7404 H       
 155 H155         -11.8783     6.5629     3.8393 H       
 156 H156         -15.0170     4.1050     5.9359 H       
 157 H157         -13.8472     1.9609     7.3060 H       
 158 H158         -13.5696     3.4186     8.2890 H       
 159 H159         -16.7909     2.2367     9.5166 H       
 160 H160         -12.1614     1.8251     0.9485 H       
 161 H161         -11.0056     1.7113     2.2970 H       
 162 H162         -11.4173    -0.4775     0.3641 H       
 163 H163         -13.2133    -2.4386     0.9391 H       
 164 H164         -12.5639    -1.7845     3.3947 H       
 165 H165         -12.6973    -3.5107     2.9815 H       
 166 H166         -10.5167    -4.9436     3.1645 H       
 167 H167          -8.1114    -4.4686     3.8550 H       
 168 H168          -6.4701    -2.1736     4.4021 H       
 169 H169          -6.5967     0.2762     4.4607 H       
 170 H170          -8.6975     1.4324     3.9182 H       
 171 H171         -10.6903     0.1578     3.3044 H       
 172 H172         -11.5471    -4.7787     1.5832 H       
 173 H173         -10.4877    -5.5439    -0.7815 H       
 174 H174          -8.7108    -4.2783    -1.3967 H       
 175 H175          -9.1998    -3.1266    -0.1307 H       
 176 H176          -7.8329    -5.2816     1.1636 H       
 177 H177          -6.3253    -4.1183    -1.2219 H       
 178 H178          -5.6231    -5.1513     0.0462 H       
 179 H179          -6.8579    -5.8084    -1.0546 H       
 180 H180          -6.8886    -2.4563     0.5031 H       
 181 H181          -7.9792    -2.8724     1.8469 H       
 182 H182          -6.3075    -3.4836     1.8354 H       
 183 H183          -7.7714    -6.4611    -0.1558 H       
 184 H184          -7.9789    -7.5582     2.5607 H       
 185 H185          -7.9480    -9.9176     1.8147 H       
 186 H186          -9.4160    -9.0956     1.2335 H       
 187 H187          -7.9932   -10.8588    -1.6952 H       
 188 H188          -5.9425    -9.2150     2.8738 H       
 189 H189          -3.7108    -7.6659     1.7476 H       
 190 H190          -2.5892    -9.6839     0.7934 H       
 191 H191          -4.0476   -10.6412     1.1467 H       
 192 H192          -5.3755    -9.0795    -0.2943 H       
 193 H193          -3.8706    -8.2222    -0.7049 H       
 194 H194          -4.9798    -9.2017    -2.9572 H       
 195 H195          -4.2852   -10.6528    -3.4415 H       
 196 H196          -1.4829    -8.8082     2.6347 H       
 197 H197          -2.1055    -9.2151     5.4870 H       
 198 H198          -0.8267   -11.3153     5.6397 H       
 199 H199          -2.9080   -11.4730     3.4145 H       
 200 H200          -2.4206   -12.7891     4.5093 H       
 201 H201          -3.2908   -11.3747     5.1500 H       
 202 H202          -0.6631   -11.1530     2.5974 H       
 203 H203           0.6904   -10.8110     3.7016 H       
 204 H204          -0.8379   -13.4471     3.5221 H       
 205 H205           0.7896   -13.1443     2.8680 H       
 206 H206           0.5156   -13.1052     4.6263 H       
 207 H207           0.1915    -9.4536     6.7573 H       
 208 H208           2.6407    -8.8449     5.7882 H       
 209 H209           1.7486    -7.1885     4.2452 H       
 210 H210           0.5282    -5.9347     6.7447 H       
 211 H211           0.5457    -5.1718     5.1366 H       
 212 H212          -0.3547    -6.6855     5.3938 H       
 213 H213           3.9100    -6.7329     5.5918 H       
 214 H214           3.1459    -5.3364     4.7955 H       
 215 H215           2.9313    -5.5911     6.5440 H       
 216 H216           3.7686    -6.7736     7.2224 H       
 217 H217           2.3854    -6.6641     9.8199 H       
 218 H218           5.0986    -8.0143     9.4546 H       
 219 H219           4.3895    -7.5798    11.0284 H       
 220 H220           2.4334    -9.1074    11.9322 H       
 221 H221           1.4292   -11.3227    11.1756 H       
 222 H222           1.5244   -13.0189     8.8575 H       
 223 H223           2.5570   -13.1339     6.6345 H       
 224 H224           4.0562   -11.3464     5.8589 H       
 225 H225           4.5344    -9.4230     7.2888 H       
 226 H226           3.9069    -5.3048    11.4640 H       
 227 H227           5.9381    -3.7130    11.1496 H       
 228 H228           5.6827    -3.7180     8.6820 H       
 229 H229           4.1090    -2.9017     8.8416 H       
 230 H230           7.7358    -2.5450     9.6042 H       
 231 H231           8.8758    -0.3642     9.6902 H       
 232 H232           7.5744     1.7148     9.4723 H       
 233 H233           5.1331     1.6128     9.1675 H       
 234 H234           3.9937    -0.5682     9.0768 H       
 235 H235           5.5969    -1.2135    11.7572 H       
 236 H236           3.7339    -1.1213    13.8325 H       
 237 H237           2.0705    -1.4475    11.9448 H       
 238 H238           1.7925     0.0128    12.9240 H       
 239 H239           0.6399     0.2914    10.4889 H       
 240 H240           1.5850     1.1980     9.4364 H       
 241 H241           2.9059     1.4592    14.1105 H       
 242 H242           5.2755     2.8767    14.6114 H       
 243 H243           4.0440     3.6194    11.9149 H       
 244 H244           5.3715     4.4844    12.7258 H       
 245 H245           5.6180     2.8205    12.1436 H       
 246 H246           5.8086     4.9332    15.2673 H       
 247 H247           5.3280     6.0557    13.9664 H       
 248 H248           5.6458     6.5726    16.8651 H       
 249 H249           5.5561     7.7361    15.5106 H       
 250 H250           3.4650     7.0281    17.3759 H       
 251 H251           3.3577     8.1437    15.9850 H       
 252 H252           2.1161     5.5993    16.2157 H       
 253 H253           0.3611     7.1486    15.5448 H       
 254 H254           0.4192     8.8461    13.3759 H       
 255 H255           0.2721     7.2391    12.6230 H       
 256 H256          -1.8526     9.0149    12.1891 H       
 257 H257          -3.9896     7.4549    13.3720 H       
 258 H258          -5.0790     9.3241    14.5935 H       
 259 H259          -3.4847     8.9478    15.2900 H       
 260 H260          -3.3646    12.5740    14.9357 H       
 261 H261          -6.2783     8.8356    12.7160 H       
 262 H262          -6.3806    10.7537    10.7985 H       
 263 H263          -6.0058     9.5181     8.6042 H       
 264 H264          -4.5305     9.8061     9.5574 H       
 265 H265          -4.9123     7.4733    10.5734 H       
 266 H266          -6.8535     7.3898     8.2230 H       
 267 H267          -6.2587     5.9450     9.0756 H       
 268 H268          -7.2407     7.1493     9.9437 H       
 269 H269          -3.1830     7.9538     8.8625 H       
 270 H270          -3.8987     6.3433     8.6128 H       
 271 H271          -4.3871     7.7048     7.5755 H       
 272 H272          -8.0461     9.9969     8.7489 H       
 273 H273          -9.8299     7.9047     9.8084 H       
 274 H274         -10.6822    10.8249     9.5536 H       
 275 H275         -11.7996     9.4655     9.8207 H       
 276 H276         -10.0890     8.6539    14.3868 H       
 277 H277          -9.8864    11.1983    14.2301 H       
 278 H278         -10.2463    12.0223    11.8016 H       
 279 H279         -11.8675     7.6967     8.1933 H       
 280 H280         -12.1807     8.7592     5.7494 H       
 281 H281         -10.4284     7.6852     4.2552 H       
 282 H282          -9.7956     8.9426     5.3447 H       
 283 H283          -9.1900     7.1035     6.9797 H       
 284 H284          -9.0398     4.7897     5.9701 H       
 285 H285         -10.7073     5.3589     6.2222 H       
 286 H286          -9.9945     5.3865     4.5915 H       
 287 H287          -7.5181     8.0975     5.4418 H       
 288 H288          -7.2005     6.3649     5.6973 H       
 289 H289          -7.9681     6.9159     4.1889 H       
@<TRIPOS>BOND
   1    1    2 1
   2    1    3 1
   3    1    4 1
   4    1  152 1
   5    2   11 1
   6    2  153 1
   7    2  154 1
   8    3  150 am
   9    3  155 1
  10    4    5 2
  11    4    6 am
  12    6    7 1
  13    6  156 1
  14    7    8 1
  15    7  157 1
  16    7  158 1
  17    8    9 2
  18    8   10 1
  19   10  159 1
  20   11   12 1
  21   12   13 1
  22   12  160 1
  23   12  161 1
  24   13   14 am
  25   13   15 2
  26   14   16 1
  27   14  162 1
  28   16   17 1
  29   16   18 1
  30   16  163 1
  31   17   28 am
  32   17   29 2
  33   18   19 1
  34   18  164 1
  35   18  165 1
  36   19   20 2
  37   19   23 1
  38   20   21 1
  39   20  166 1
  40   21   22 1
  41   21  167 1
  42   22   23 ar
  43   22   24 ar
  44   23   27 ar
  45   24   25 ar
  46   24  168 1
  47   25   26 ar
  48   25  169 1
  49   26   27 ar
  50   26  170 1
  51   27  171 1
  52   28   30 1
  53   28  172 1
  54   30   31 1
  55   30   35 1
  56   30  173 1
  57   31   32 1
  58   31  174 1
  59   31  175 1
  60   32   33 1
  61   32   34 1
  62   32  176 1
  63   33  177 1
  64   33  178 1
  65   33  179 1
  66   34  180 1
  67   34  181 1
  68   34  182 1
  69   35   36 am
  70   35   37 2
  71   36   38 1
  72   36  183 1
  73   38   39 1
  74   38   43 1
  75   38  184 1
  76   39   40 1
  77   39  185 1
  78   39  186 1
  79   40   41 2
  80   40   42 1
  81   42  187 1
  82   43   44 am
  83   43   45 2
  84   44   46 1
  85   44  188 1
  86   46   47 1
  87   46   48 1
  88   46  189 1
  89   47   53 2
  90   47   54 am
  91   48   49 1
  92   48  190 1
  93   48  191 1
  94   49   50 1
  95   49  192 1
  96   49  193 1
  97   50   51 am
  98   50   52 2
  99   51  194 1
 100   51  195 1
 101   54   55 1
 102   54  196 1
 103   55   56 1
 104   55   57 1
 105   55  197 1
 106   56   61 am
 107   56   62 2
 108   57   58 1
 109   57   59 1
 110   57  198 1
 111   58  199 1
 112   58  200 1
 113   58  201 1
 114   59   60 1
 115   59  202 1
 116   59  203 1
 117   60  204 1
 118   60  205 1
 119   60  206 1
 120   61   63 1
 121   61  207 1
 122   63   64 1
 123   63   65 1
 124   63  208 1
 125   64   68 am
 126   64   69 2
 127   65   66 1
 128   65   67 1
 129   65  209 1
 130   66  210 1
 131   66  211 1
 132   66  212 1
 133   67  213 1
 134   67  214 1
 135   67  215 1
 136   68   70 1
 137   68  216 1
 138   70   71 1
 139   70   72 1
 140   70  217 1
 141   71   82 2
 142   71   83 am
 143   72   73 1
 144   72  218 1
 145   72  219 1
 146   73   74 2
 147   73   77 1
 148   74   75 1
 149   74  220 1
 150   75   76 1
 151   75  221 1
 152   76   77 ar
 153   76   78 ar
 154   77   81 ar
 155   78   79 ar
 156   78  222 1
 157   79   80 ar
 158   79  223 1
 159   80   81 ar
 160   80  224 1
 161   81  225 1
 162   83   84 1
 163   83  226 1
 164   84   85 1
 165   84   86 1
 166   84  227 1
 167   85   93 2
 168   85   94 am
 169   86   87 1
 170   86  228 1
 171   86  229 1
 172   87   88 ar
 173   87   92 ar
 174   88   89 ar
 175   88  230 1
 176   89   90 ar
 177   89  231 1
 178   90   91 ar
 179   90  232 1
 180   91   92 ar
 181   91  233 1
 182   92  234 1
 183   94   95 1
 184   94  235 1
 185   95   96 1
 186   95   97 1
 187   95  236 1
 188   96  101 2
 189   96  102 am
 190   97   98 1
 191   97  237 1
 192   97  238 1
 193   98   99 am
 194   98  100 2
 195   99  239 1
 196   99  240 1
 197  102  103 1
 198  102  241 1
 199  103  104 1
 200  103  105 1
 201  103  242 1
 202  104  106 2
 203  104  107 am
 204  105  243 1
 205  105  244 1
 206  105  245 1
 207  107  108 1
 208  107  111 1
 209  108  109 1
 210  108  246 1
 211  108  247 1
 212  109  110 1
 213  109  248 1
 214  109  249 1
 215  110  111 1
 216  110  250 1
 217  110  251 1
 218  111  112 1
 219  111  252 1
 220  112  113 2
 221  112  114 am
 222  114  115 1
 223  114  253 1
 224  115  116 1
 225  115  254 1
 226  115  255 1
 227  116  117 am
 228  116  118 2
 229  117  119 1
 230  117  256 1
 231  119  120 1
 232  119  124 1
 233  119  257 1
 234  120  121 1
 235  120  258 1
 236  120  259 1
 237  121  122 1
 238  121  123 2
 239  122  260 1
 240  124  125 2
 241  124  126 am
 242  126  127 1
 243  126  261 1
 244  127  128 1
 245  127  129 1
 246  127  262 1
 247  128  133 am
 248  128  134 2
 249  129  130 1
 250  129  263 1
 251  129  264 1
 252  130  131 1
 253  130  132 1
 254  130  265 1
 255  131  266 1
 256  131  267 1
 257  131  268 1
 258  132  269 1
 259  132  270 1
 260  132  271 1
 261  133  135 1
 262  133  272 1
 263  135  136 1
 264  135  137 1
 265  135  273 1
 266  136  143 2
 267  136  144 am
 268  137  138 1
 269  137  274 1
 270  137  275 1
 271  138  139 1
 272  138  142 2
 273  139  140 2
 274  140  141 1
 275  140  276 1
 276  141  142 1
 277  141  277 1
 278  142  278 1
 279  144  145 1
 280  144  279 1
 281  145  146 1
 282  145  150 1
 283  145  280 1
 284  146  147 1
 285  146  281 1
 286  146  282 1
 287  147  148 1
 288  147  149 1
 289  147  283 1
 290  148  284 1
 291  148  285 1
 292  148  286 1
 293  149  287 1
 294  149  288 1
 295  149  289 1
 296  150  151 2

#	End of record

