#	Name: ASD01870642
#	Creating user name:	WinNT
#	Creation time:	15. 06. 2019 19:39

#	Modifying user name:	WinNT
#	Modification time:	15. 06. 2019 19:39

#	Program:	/corina/corina34_cracker 3.40 0067  02.08.2006

@<TRIPOS>MOLECULE
ASD01870642
  39   42    0    0    0
SMALL
NO_CHARGES


@<TRIPOS>ATOM
   1 C1             0.0361     1.2808    -0.2712 C.ar    
   2 N2             0.0508    -0.0354    -0.1540 N.ar    
   3 C3             1.1580    -0.7100     0.0793 C.ar    
   4 C4             2.3804    -0.0627     0.2159 C.ar    
   5 C5             1.2104     2.0055    -0.1493 C.ar    
   6 C6             1.5700     3.4353    -0.2173 C.2     
   7 C7             2.4172     1.3167     0.1014 C.ar    
   8 C8             3.4679     2.3533     0.1769 C.2     
   9 N9             2.8957     3.5561    -0.0189 N.am    
  10 C10            3.5902     4.7755    -0.0165 C.ar    
  11 C11            3.7476     5.4823     1.1679 C.ar    
  12 C12            4.4307     6.6819     1.1707 C.ar    
  13 C13            4.9610     7.1824    -0.0117 C.ar    
  14 C14            4.8039     6.4759    -1.1968 C.ar    
  15 C15            4.1251     5.2726    -1.1985 C.ar    
  16 O16            0.7979     4.3508    -0.4192 O.2     
  17 O17            4.6481     2.1538     0.3807 O.2     
  18 N18            5.6531     8.3989    -0.0085 N.am    
  19 Cl19           3.9344     4.3853    -2.6784 Cl      
  20 C20            5.5515     9.2347    -1.0609 C.2     
  21 C21            6.1931    10.5524    -1.0153 C.2     
  22 O22            4.9273     8.8957    -2.0493 O.2     
  23 O23            6.9156    11.0472     0.0110 O.3     
  24 C24            6.1689    11.4915    -2.0064 C.2     
  25 C25            6.9060    12.5907    -1.5389 C.2     
  26 C26            7.3455    12.2770    -0.3001 C.2     
  27 C27            5.4840    11.3708    -3.3434 C.3     
  28 H28           -0.8943     1.7931    -0.4671 H       
  29 H29            1.1151    -1.7856     0.1664 H       
  30 H30            3.2829    -0.6240     0.4078 H       
  31 H31            3.3352     5.0938     2.0873 H       
  32 H32            4.5526     7.2316     2.0923 H       
  33 H33            5.2160     6.8649    -2.1162 H       
  34 H34            6.2059     8.6405     0.7511 H       
  35 H35            7.0904    13.5125    -2.0707 H       
  36 H36            7.9463    12.9123     0.3337 H       
  37 H37            4.4631    11.7441    -3.2636 H       
  38 H38            6.0281    11.9563    -4.0845 H       
  39 H39            5.4655    10.3247    -3.6490 H       
@<TRIPOS>BOND
   1    1    2 ar
   2    1    5 ar
   3    1   28 1
   4    2    3 ar
   5    3    4 ar
   6    3   29 1
   7    4    7 ar
   8    4   30 1
   9    5    7 ar
  10    5    6 1
  11    6    9 am
  12    6   16 2
  13    7    8 1
  14    8    9 am
  15    8   17 2
  16    9   10 1
  17   10   11 ar
  18   10   15 ar
  19   11   12 ar
  20   11   31 1
  21   12   13 ar
  22   12   32 1
  23   13   14 ar
  24   13   18 1
  25   14   15 ar
  26   14   33 1
  27   15   19 1
  28   18   20 am
  29   18   34 1
  30   20   21 1
  31   20   22 2
  32   21   24 2
  33   21   23 1
  34   23   26 1
  35   24   25 1
  36   24   27 1
  37   25   26 2
  38   25   35 1
  39   26   36 1
  40   27   37 1
  41   27   38 1
  42   27   39 1

#	End of record

