#	Name: ASD03090894
#	Creating user name:	WinNT
#	Creation time:	15. 06. 2019 20:29

#	Modifying user name:	WinNT
#	Modification time:	15. 06. 2019 20:29

#	Program:	/corina/corina34_cracker 3.40 0067  02.08.2006

@<TRIPOS>MOLECULE
ASD03090894
  36   38    0    0    0
SMALL
NO_CHARGES


@<TRIPOS>ATOM
   1 N1            -0.0175     1.3431    -0.0892 N.am    
   2 C2             0.0011    -0.0044    -0.0703 C.2     
   3 O3             1.0649    -0.5994    -0.0798 O.2     
   4 N4            -1.1464    -0.6880    -0.0411 N.2     
   5 C5             1.2408     2.0927    -0.1213 C.3     
   6 C6            -1.2961     2.0581    -0.0839 C.3     
   7 S7             0.2595    -3.0387    -0.0306 S.3     
   8 C8            -1.1280    -2.0187    -0.0223 C.2     
   9 N9            -2.1987    -2.8518     0.0077 N.pl3   
  10 C10           -1.9391    -4.1884     0.0229 C.2     
  11 C11           -0.6633    -4.5510     0.0069 C.2     
  12 C12           -0.1140    -5.9542     0.0186 C.3     
  13 F13            0.1420    -6.3658    -1.2937 F       
  14 O14           -7.4524    -1.1574     0.0453 O.3     
  15 C15           -8.0539    -2.4331     0.3354 C.3     
  16 O16           -7.0845    -3.3848    -0.1417 O.3     
  17 C17           -5.8790    -2.7494    -0.0608 C.ar    
  18 C18           -6.1048    -1.3793     0.0543 C.ar    
  19 C19           -4.5832    -3.2363    -0.0763 C.ar    
  20 C20           -3.5113    -2.3592     0.0230 C.ar    
  21 C21           -3.7393    -0.9949     0.1377 C.ar    
  22 C22           -5.0326    -0.5079     0.1538 C.ar    
  23 F23           -8.2518    -2.5814     1.7124 F       
  24 F24           -9.2627    -2.5748    -0.3544 F       
  25 H25            1.5355     2.2639    -1.1566 H       
  26 H26            1.1060     3.0505     0.3812 H       
  27 H27            2.0171     1.5214     0.3877 H       
  28 H28           -2.1147     1.3387    -0.0637 H       
  29 H29           -1.3518     2.6966     0.7978 H       
  30 H30           -1.3733     2.6712    -0.9819 H       
  31 H31           -2.7344    -4.9188     0.0469 H       
  32 H32            0.8116    -5.9773     0.5937 H       
  33 H33           -0.8418    -6.6255     0.4745 H       
  34 H34           -4.4060    -4.2979    -0.1651 H       
  35 H35           -2.9052    -0.3132     0.2149 H       
  36 H36           -5.2076     0.5542     0.2426 H       
@<TRIPOS>BOND
   1    1    2 am
   2    1    5 1
   3    1    6 1
   4    2    3 2
   5    2    4 1
   6    4    8 2
   7    5   25 1
   8    5   26 1
   9    5   27 1
  10    6   28 1
  11    6   29 1
  12    6   30 1
  13    7    8 1
  14    7   11 1
  15    8    9 1
  16    9   10 1
  17    9   20 1
  18   10   11 2
  19   10   31 1
  20   11   12 1
  21   12   13 1
  22   12   32 1
  23   12   33 1
  24   14   15 1
  25   14   18 1
  26   15   16 1
  27   15   23 1
  28   15   24 1
  29   16   17 1
  30   17   18 ar
  31   17   19 ar
  32   18   22 ar
  33   19   20 ar
  34   19   34 1
  35   20   21 ar
  36   21   22 ar
  37   21   35 1
  38   22   36 1

#	End of record

