#	Name: ASD03930070
#	Creating user name:	WinNT
#	Creation time:	15. 06. 2019 20:47

#	Modifying user name:	WinNT
#	Modification time:	15. 06. 2019 20:47

#	Program:	/corina/corina34_cracker 3.40 0067  02.08.2006

@<TRIPOS>MOLECULE
ASD03930070
  32   34    0    0    0
SMALL
NO_CHARGES


@<TRIPOS>ATOM
   1 C1            -0.0167     1.3782     0.0096 C.ar    
   2 C2             0.0021    -0.0041     0.0020 C.ar    
   3 C3            -1.1778    -0.7393    -0.0060 C.ar    
   4 C4            -2.3962    -0.0997    -0.0088 C.ar    
   5 C5            -2.4173     1.3135     0.0278 C.ar    
   6 C6            -1.2487     2.0539     0.0309 C.ar    
   7 C7            -3.6792    -0.8784    -0.0792 C.3     
   8 N8            -4.7921    -0.2118     0.6029 N.am    
   9 S9            -5.2063     1.3421     0.1424 S.o2    
  10 C10           -3.6217     2.1568     0.0914 C.2     
  11 S11           -1.6421     3.7674     0.0506 S.3     
  12 C12           -3.3668     3.4440     0.0980 C.2     
  13 O13           -5.6838     1.2700    -1.1941 O.2     
  14 O14           -5.9386     1.9164     1.2162 O.2     
  15 C15           -5.5286    -0.8943     1.6697 C.3     
  16 F16           -1.1279    -2.0893    -0.0115 F       
  17 N17            1.1814     2.0986     0.0020 N.3     
  18 C18            1.9972     1.7759     1.1803 C.3     
  19 C19            1.9311     1.8605    -1.2386 C.3     
  20 H20            0.9499    -0.5218     0.0020 H       
  21 H21           -3.9452    -1.0223    -1.1264 H       
  22 H22           -3.5222    -1.8554     0.3780 H       
  23 H23           -4.1259     4.2115     0.1312 H       
  24 H24           -5.0571    -0.6828     2.6294 H       
  25 H25           -6.5589    -0.5388     1.6848 H       
  26 H26           -5.5177    -1.9691     1.4885 H       
  27 H27            2.2297     0.7110     1.1806 H       
  28 H28            2.9233     2.3500     1.1493 H       
  29 H29            1.4440     2.0272     2.0852 H       
  30 H30            1.3297     2.1733    -2.0922 H       
  31 H31            2.8585     2.4328    -1.2183 H       
  32 H32            2.1612     0.7986    -1.3259 H       
@<TRIPOS>BOND
   1    1    2 ar
   2    1   17 1
   3    1    6 ar
   4    2    3 ar
   5    2   20 1
   6    3    4 ar
   7    3   16 1
   8    4    5 ar
   9    4    7 1
  10    5    6 ar
  11    5   10 1
  12    6   11 1
  13    7    8 1
  14    7   21 1
  15    7   22 1
  16    8    9 am
  17    8   15 1
  18    9   10 1
  19    9   13 2
  20    9   14 2
  21   10   12 2
  22   11   12 1
  23   12   23 1
  24   15   24 1
  25   15   25 1
  26   15   26 1
  27   17   18 1
  28   17   19 1
  29   18   27 1
  30   18   28 1
  31   18   29 1
  32   19   30 1
  33   19   31 1
  34   19   32 1

#	End of record

