#	Name: ASD01814323
#	Creating user name:	WinNT
#	Creation time:	15. 06. 2019 19:32

#	Modifying user name:	WinNT
#	Modification time:	15. 06. 2019 19:32

#	Program:	/corina/corina34_cracker 3.40 0067  02.08.2006

@<TRIPOS>MOLECULE
ASD01814323
  55   59    0    0    0
SMALL
NO_CHARGES


@<TRIPOS>ATOM
   1 N1            -0.9382     1.9061    -1.4538 N.2     
   2 C2            -1.2123     0.7581    -2.0272 C.2     
   3 C3            -0.3663     0.2445    -3.0221 C.2     
   4 C4             0.7366     0.9447    -3.3856 C.2     
   5 N5             0.9984     2.1369    -2.7727 N.pl3   
   6 C6             0.1485     2.6064    -1.8049 C.2     
   7 N7             2.0291     3.0707    -2.9209 N.2     
   8 C8             1.8245     4.0683    -2.0845 C.2     
   9 C9             0.6642     3.8215    -1.3700 C.2     
  10 C10            2.4030     5.3850    -1.6277 C.3     
  11 N11            1.5205     5.9238    -0.5883 N.am    
  12 C12            0.4282     4.9613    -0.4127 C.3     
  13 C13            1.6825     7.0834     0.0792 C.2     
  14 O14            0.8232     7.4667     0.8496 O.2     
  15 C15            2.9014     7.8872    -0.1247 C.ar    
  16 C16            2.8129     9.2807    -0.2560 C.ar    
  17 C17            4.1513     7.2650    -0.1824 C.ar    
  18 C18            5.2869     8.0205    -0.3725 C.ar    
  19 C19            5.1957     9.3990    -0.5074 C.ar    
  20 C20            3.9642    10.0273    -0.4468 C.ar    
  21 O21            1.6048     9.8950    -0.1968 O.3     
  22 Cl22          -0.7283    -1.2746    -3.7805 Cl      
  23 F23            6.3156    10.1316    -0.6932 F       
  24 C24           -2.4404    -0.0122    -1.6153 C.3     
  25 C25            1.6612     0.4144    -4.4511 C.3     
  26 C26            1.6030    11.3240    -0.1967 C.3     
  27 C27           -0.3713    12.6721    -0.7309 C.3     
  28 C28            0.2863    11.8581     0.4040 C.3     
  29 C29            1.6301    11.8603    -1.6441 C.3     
  30 N30            0.7576    13.0624    -1.6143 N.3     
  31 O31            0.5583    12.7005     1.5258 O.3     
  32 C32            0.2794    13.3993    -2.9618 C.3     
  33 H33            3.4015     5.2280    -1.2197 H       
  34 H34            2.4511     6.0784    -2.4674 H       
  35 H35           -0.5256     5.4396    -0.6357 H       
  36 H36            0.4254     4.5890     0.6117 H       
  37 H37            4.2267     6.1928    -0.0775 H       
  38 H38            6.2523     7.5385    -0.4166 H       
  39 H39            3.9005    11.1006    -0.5487 H       
  40 H40           -2.9698     0.5373    -0.8369 H       
  41 H41           -3.0944    -0.1414    -2.4776 H       
  42 H42           -2.1452    -0.9895    -1.2335 H       
  43 H43            1.2851    -0.5416    -4.8155 H       
  44 H44            1.7093     1.1244    -5.2767 H       
  45 H45            2.6578     0.2768    -4.0316 H       
  46 H46            2.4577    11.7030     0.3636 H       
  47 H47           -1.0854    12.0554    -1.2766 H       
  48 H48           -0.8625    13.5579    -0.3281 H       
  49 H49           -0.3585    11.0302     0.6988 H       
  50 H50            2.6458    12.1349    -1.9288 H       
  51 H51            1.2292    11.1166    -2.3327 H       
  52 H52           -0.2300    13.1010     1.9172 H       
  53 H53           -0.4226    14.2308    -2.9009 H       
  54 H54            1.1258    13.6834    -3.5872 H       
  55 H55           -0.2196    12.5336    -3.3973 H       
@<TRIPOS>BOND
   1    1    2 2
   2    1    6 1
   3    2    3 1
   4    2   24 1
   5    3    4 2
   6    3   22 1
   7    4    5 1
   8    4   25 1
   9    5    7 1
  10    5    6 1
  11    6    9 2
  12    7    8 2
  13    8   10 1
  14    8    9 1
  15    9   12 1
  16   10   11 1
  17   10   33 1
  18   10   34 1
  19   11   12 1
  20   11   13 am
  21   12   35 1
  22   12   36 1
  23   13   14 2
  24   13   15 1
  25   15   17 ar
  26   15   16 ar
  27   16   20 ar
  28   16   21 1
  29   17   18 ar
  30   17   37 1
  31   18   19 ar
  32   18   38 1
  33   19   20 ar
  34   19   23 1
  35   20   39 1
  36   21   26 1
  37   24   40 1
  38   24   41 1
  39   24   42 1
  40   25   43 1
  41   25   44 1
  42   25   45 1
  43   26   29 1
  44   26   28 1
  45   26   46 1
  46   27   28 1
  47   27   30 1
  48   27   47 1
  49   27   48 1
  50   28   31 1
  51   28   49 1
  52   29   30 1
  53   29   50 1
  54   29   51 1
  55   30   32 1
  56   31   52 1
  57   32   53 1
  58   32   54 1
  59   32   55 1

#	End of record

