#	Name: ASD01811537
#	Creating user name:	WinNT
#	Creation time:	15. 06. 2019 19:26

#	Modifying user name:	WinNT
#	Modification time:	15. 06. 2019 19:26

#	Program:	/corina/corina34_cracker 3.40 0067  02.08.2006

@<TRIPOS>MOLECULE
ASD01811537
  60   64    0    0    0
SMALL
NO_CHARGES


@<TRIPOS>ATOM
   1 C1            -7.2621     2.1974    -4.0224 C.1     
   2 C2            -6.2916     2.9934    -3.3331 C.ar    
   3 C3            -5.1257     2.4054    -2.8385 C.ar    
   4 C4            -4.1950     3.1781    -2.1755 C.ar    
   5 C5            -4.4150     4.5327    -1.9996 C.ar    
   6 C6            -5.5683     5.1219    -2.4867 C.ar    
   7 C7            -6.5042     4.3622    -3.1576 C.ar    
   8 N8            -8.0320     1.5659    -4.5692 N.1     
   9 N9            -2.3891     7.7921    -0.2129 N.am    
  10 C10           -1.8209     7.3002    -1.4753 C.3     
  11 C11           -2.8835     6.4724    -2.2049 C.3     
  12 C12           -3.3939     5.3703    -1.2737 C.3     
  13 C13           -4.0384     6.0023    -0.0379 C.3     
  14 C14           -2.9888     6.8248     0.7163 C.3     
  15 C15           -2.3558     9.1051     0.0897 C.2     
  16 C16           -3.0106     9.5969     1.3209 C.ar    
  17 C17           -3.9733    10.6062     1.2464 C.ar    
  18 C18           -4.5858    11.0660     2.3949 C.ar    
  19 C19           -4.2518    10.5324     3.6242 C.ar    
  20 C20           -3.2911     9.5232     3.7128 C.ar    
  21 C21           -2.6728     9.0507     2.5572 C.ar    
  22 O22           -1.7875     9.8849    -0.6495 O.2     
  23 C23           -4.9253    11.0410     4.8727 C.3     
  24 C24           -4.3438    11.1947    -0.0906 C.3     
  25 S25           -1.2969     8.7434     5.6438 S.3     
  26 C26           -2.9346     8.9530     5.0300 C.2     
  27 N27           -3.7790     8.5267     5.9204 N.2     
  28 C28           -3.2944     8.0452     7.0490 C.2     
  29 C29           -1.9460     8.0619     7.1277 C.2     
  30 C30           -1.1567     7.5669     8.3162 C.3     
  31 C31           -4.1439     7.5048     8.1934 C.3     
  32 C32           -3.2369     6.6723     9.1053 C.3     
  33 O33           -2.0578     7.4182     9.4207 O.3     
  34 H34           -4.9532     1.3479    -2.9745 H       
  35 H35           -3.2928     2.7245    -1.7924 H       
  36 H36           -5.7338     6.1797    -2.3457 H       
  37 H37           -7.4017     4.8242    -3.5415 H       
  38 H38           -1.5257     8.1455    -2.0971 H       
  39 H39           -0.9517     6.6766    -1.2664 H       
  40 H40           -3.7130     7.1181    -2.4933 H       
  41 H41           -2.4456     6.0221    -3.0957 H       
  42 H42           -2.5597     4.7399    -0.9658 H       
  43 H43           -4.8570     6.6524    -0.3467 H       
  44 H44           -4.4225     5.2174     0.6137 H       
  45 H45           -2.2149     6.1623     1.1039 H       
  46 H46           -3.4643     7.3563     1.5406 H       
  47 H47           -5.3294    11.8468     2.3319 H       
  48 H48           -1.9320     8.2673     2.6199 H       
  49 H49           -5.7719    10.3991     5.1160 H       
  50 H50           -4.2139    11.0328     5.6984 H       
  51 H51           -5.2773    12.0592     4.7066 H       
  52 H52           -5.1052    10.5736    -0.5625 H       
  53 H53           -4.7339    12.2025     0.0516 H       
  54 H54           -3.4604    11.2336    -0.7278 H       
  55 H55           -0.7016     6.6049     8.0807 H       
  56 H56           -0.3808     8.2894     8.5692 H       
  57 H57           -4.5723     8.3335     8.7573 H       
  58 H58           -4.9418     6.8777     7.7956 H       
  59 H59           -3.7701     6.4307    10.0247 H       
  60 H60           -2.9577     5.7503     8.5954 H       
@<TRIPOS>BOND
   1    1    2 1
   2    1    8 3
   3    2    3 ar
   4    2    7 ar
   5    3    4 ar
   6    3   34 1
   7    4    5 ar
   8    4   35 1
   9    5    6 ar
  10    5   12 1
  11    6    7 ar
  12    6   36 1
  13    7   37 1
  14    9   10 1
  15    9   14 1
  16    9   15 am
  17   10   11 1
  18   10   38 1
  19   10   39 1
  20   11   12 1
  21   11   40 1
  22   11   41 1
  23   12   13 1
  24   12   42 1
  25   13   14 1
  26   13   43 1
  27   13   44 1
  28   14   45 1
  29   14   46 1
  30   15   16 1
  31   15   22 2
  32   16   17 ar
  33   16   21 ar
  34   17   18 ar
  35   17   24 1
  36   18   19 ar
  37   18   47 1
  38   19   20 ar
  39   19   23 1
  40   20   21 ar
  41   20   26 1
  42   21   48 1
  43   23   49 1
  44   23   50 1
  45   23   51 1
  46   24   52 1
  47   24   53 1
  48   24   54 1
  49   25   26 1
  50   25   29 1
  51   26   27 2
  52   27   28 1
  53   28   29 2
  54   28   31 1
  55   29   30 1
  56   30   33 1
  57   30   55 1
  58   30   56 1
  59   31   32 1
  60   31   57 1
  61   31   58 1
  62   32   33 1
  63   32   59 1
  64   32   60 1

#	End of record

