#	Name: ASD04880478
#	Creating user name:	WinNT
#	Creation time:	15. 06. 2019 20:53

#	Modifying user name:	WinNT
#	Modification time:	15. 06. 2019 20:53

#	Program:	/corina/corina34_cracker 3.40 0067  02.08.2006

@<TRIPOS>MOLECULE
ASD04880478
  40   42    0    0    0
SMALL
NO_CHARGES


@<TRIPOS>ATOM
   1 C1            -0.0298     1.1277    -0.1320 C.2     
   2 O2            -0.0081    -0.0874    -0.0921 O.2     
   3 N3             1.1244     1.8233    -0.1145 N.am    
   4 N4             1.2412     3.2037    -0.2637 N.2     
   5 C5             2.4531     3.6382    -0.2108 C.2     
   6 C6             3.3972     2.4767     0.0034 C.3     
   7 C7             2.4667     1.2496     0.0717 C.3     
   8 C8             2.8570     5.0501    -0.3397 C.ar    
   9 C9             3.4463     5.7120     0.7411 C.ar    
  10 C10            3.8226     7.0315     0.6159 C.ar    
  11 C11            3.6167     7.7041    -0.5821 C.ar    
  12 C12            3.0315     7.0504    -1.6587 C.ar    
  13 C13            2.6572     5.7289    -1.5445 C.ar    
  14 C14            3.6693     4.9838     2.0415 C.3     
  15 O15            3.9885     9.0053    -0.7007 O.3     
  16 C16            3.7480     9.6365    -1.9600 C.3     
  17 C17           -1.3218     1.8417    -0.2058 C.ar    
  18 C18           -2.5091     1.1267    -0.3725 C.ar    
  19 C19           -3.7133     1.8006    -0.4402 C.ar    
  20 C20           -3.7425     3.1829    -0.3430 C.ar    
  21 C21           -2.5686     3.8953    -0.1783 C.ar    
  22 C22           -1.3603     3.2332    -0.1035 C.ar    
  23 F23           -4.8639     1.1113    -0.6019 F       
  24 H24            4.0909     2.3887    -0.8327 H       
  25 H25            3.9401     2.5932     0.9413 H       
  26 H26            2.5437     0.7612     1.0431 H       
  27 H27            2.6991     0.5491    -0.7304 H       
  28 H28            4.2780     7.5438     1.4505 H       
  29 H29            2.8731     7.5773    -2.5880 H       
  30 H30            2.2059     5.2202    -2.3835 H       
  31 H31            4.6836     4.5854     2.0655 H       
  32 H32            3.5304     5.6746     2.8732 H       
  33 H33            2.9551     4.1648     2.1264 H       
  34 H34            4.2896     9.1046    -2.7423 H       
  35 H35            2.6804     9.6158    -2.1788 H       
  36 H36            4.0907    10.6704    -1.9195 H       
  37 H37           -2.4864     0.0496    -0.4486 H       
  38 H38           -4.6859     3.7059    -0.3964 H       
  39 H39           -2.5981     4.9723    -0.1036 H       
  40 H40           -0.4452     3.7912     0.0300 H       
@<TRIPOS>BOND
   1    1    2 2
   2    1    3 am
   3    1   17 1
   4    3    4 1
   5    3    7 1
   6    4    5 2
   7    5    6 1
   8    5    8 1
   9    6    7 1
  10    6   24 1
  11    6   25 1
  12    7   26 1
  13    7   27 1
  14    8    9 ar
  15    8   13 ar
  16    9   10 ar
  17    9   14 1
  18   10   11 ar
  19   10   28 1
  20   11   12 ar
  21   11   15 1
  22   12   13 ar
  23   12   29 1
  24   13   30 1
  25   14   31 1
  26   14   32 1
  27   14   33 1
  28   15   16 1
  29   16   34 1
  30   16   35 1
  31   16   36 1
  32   17   18 ar
  33   17   22 ar
  34   18   19 ar
  35   18   37 1
  36   19   20 ar
  37   19   23 1
  38   20   21 ar
  39   20   38 1
  40   21   22 ar
  41   21   39 1
  42   22   40 1

#	End of record

