#	Name: ASD03930195
#	Creating user name:	WinNT
#	Creation time:	15. 06. 2019 20:47

#	Modifying user name:	WinNT
#	Modification time:	15. 06. 2019 20:47

#	Program:	/corina/corina34_cracker 3.40 0067  02.08.2006

@<TRIPOS>MOLECULE
ASD03930195
  54   57    0    0    0
SMALL
NO_CHARGES


@<TRIPOS>ATOM
   1 S1            -0.0772     4.0237    -0.9978 S.o2    
   2 N2            -0.7564     2.5393    -1.3344 N.am    
   3 C3            -0.4944     1.9093    -2.6247 C.3     
   4 C4             0.9738     1.5718    -2.8350 C.3     
   5 O5             1.7783     2.7566    -2.8739 O.3     
   6 C6             2.3633     3.1107    -1.7016 C.ar    
   7 C7             1.6332     3.6776    -0.6660 C.ar    
   8 C8             3.7228     2.8878    -1.5127 C.ar    
   9 C9             4.3091     3.1886    -0.2994 C.ar    
  10 C10            3.5556     3.7143     0.7398 C.ar    
  11 C11            2.2000     3.9643     0.5477 C.ar    
  12 C12           -1.5392     1.9268    -0.4243 C.2     
  13 O13           -2.0313     0.8447    -0.6761 O.2     
  14 O14           -1.7760     2.5139     0.7640 O.3     
  15 O15            4.1375     3.9829     1.9390 O.3     
  16 C16            3.3383     4.3946     2.9579 C.ar    
  17 C17            3.1150     5.7467     3.1597 C.ar    
  18 C18            2.2940     6.1647     4.2067 C.ar    
  19 C19            1.7027     5.2174     5.0446 C.ar    
  20 C20            1.9318     3.8731     4.8349 C.ar    
  21 C21            2.7414     3.4596     3.7930 C.ar    
  22 O22            1.2835     8.1323     5.3988 O.3     
  23 C23            2.0511     7.6060     4.4289 C.2     
  24 N24            2.5493     8.5862     3.7127 N.2     
  25 C25            2.1084     9.7502     4.2134 C.2     
  26 C26            1.3178     9.4730     5.2661 C.2     
  27 O27           -0.1169     4.7754    -2.2031 O.2     
  28 O28           -0.6498     4.4688     0.2241 O.2     
  29 C29           -2.6283     1.7967     1.6954 C.3     
  30 C30           -1.9976     0.4422     2.0245 C.3     
  31 C31           -2.7810     2.6138     2.9799 C.3     
  32 C32           -4.0044     1.5784     1.0632 C.3     
  33 H33           -1.0784     0.9914    -2.6919 H       
  34 H34           -0.8158     2.5855    -3.4169 H       
  35 H35            1.3145     0.9354    -2.0183 H       
  36 H36            1.0853     1.0334    -3.7762 H       
  37 H37            4.3198     2.4792    -2.3146 H       
  38 H38            5.3653     3.0130    -0.1581 H       
  39 H39            1.6023     4.3795     1.3457 H       
  40 H40            3.5754     6.4749     2.5084 H       
  41 H41            1.0666     5.5368     5.8569 H       
  42 H42            1.4738     3.1413     5.4838 H       
  43 H43            2.9133     2.4058     3.6306 H       
  44 H44            2.3463    10.7347     3.8384 H       
  45 H45            0.8055    10.1914     5.8889 H       
  46 H46           -1.0173     0.5976     2.4749 H       
  47 H47           -2.6374    -0.0962     2.7237 H       
  48 H48           -1.8889    -0.1400     1.1094 H       
  49 H49           -3.2303     3.5788     2.7454 H       
  50 H50           -3.4208     2.0754     3.6791 H       
  51 H51           -1.8007     2.7693     3.4303 H       
  52 H52           -3.8956     0.9963     0.1481 H       
  53 H53           -4.6442     1.0401     1.7624 H       
  54 H54           -4.4537     2.5435     0.8287 H       
@<TRIPOS>BOND
   1    1    2 am
   2    1    7 1
   3    1   27 2
   4    1   28 2
   5    2    3 1
   6    2   12 am
   7    3    4 1
   8    3   33 1
   9    3   34 1
  10    4    5 1
  11    4   35 1
  12    4   36 1
  13    5    6 1
  14    6    7 ar
  15    6    8 ar
  16    7   11 ar
  17    8    9 ar
  18    8   37 1
  19    9   10 ar
  20    9   38 1
  21   10   11 ar
  22   10   15 1
  23   11   39 1
  24   12   13 2
  25   12   14 1
  26   14   29 1
  27   15   16 1
  28   16   17 ar
  29   16   21 ar
  30   17   18 ar
  31   17   40 1
  32   18   19 ar
  33   18   23 1
  34   19   20 ar
  35   19   41 1
  36   20   21 ar
  37   20   42 1
  38   21   43 1
  39   22   23 1
  40   22   26 1
  41   23   24 2
  42   24   25 1
  43   25   26 2
  44   25   44 1
  45   26   45 1
  46   29   30 1
  47   29   32 1
  48   29   31 1
  49   30   46 1
  50   30   47 1
  51   30   48 1
  52   31   49 1
  53   31   50 1
  54   31   51 1
  55   32   52 1
  56   32   53 1
  57   32   54 1

#	End of record

