#	Name: ASD01881537
#	Creating user name:	WinNT
#	Creation time:	15. 06. 2019 19:42

#	Modifying user name:	WinNT
#	Modification time:	15. 06. 2019 19:42

#	Program:	/corina/corina34_cracker 3.40 0067  02.08.2006

@<TRIPOS>MOLECULE
ASD01881537
  30   31    0    0    0
SMALL
NO_CHARGES


@<TRIPOS>ATOM
   1 N1            -0.0169     1.3985     0.0097 N.pl3   
   2 N2             0.0021    -0.0041     0.0020 N.2     
   3 N3             1.2207    -0.4156    -0.0118 N.2     
   4 C4             2.0691     0.6320    -0.0143 C.ar    
   5 C5             1.2974     1.8068    -0.0006 C.ar    
   6 C6             3.4673     0.7317    -0.0272 C.ar    
   7 C7             4.0623     1.9765    -0.0262 C.ar    
   8 C8             3.2842     3.1315    -0.0120 C.ar    
   9 C9             1.9202     3.0498     0.0001 C.ar    
  10 O10            5.4186     2.0765    -0.0386 O.3     
  11 C11           -1.2024     2.2593     0.0203 C.3     
  12 C12           -1.6075     2.5516     1.4665 C.3     
  13 C13           -0.4570     3.2591     2.1853 C.3     
  14 C14           -2.8455     3.4505     1.4775 C.3     
  15 C15           -1.9251     1.2374     2.1827 C.3     
  16 Cl16           4.4446    -0.7030    -0.0436 Cl      
  17 H17            3.7627     4.0997    -0.0107 H       
  18 H18            1.3256     3.9513     0.0103 H       
  19 H19            5.8024     2.1101    -0.9255 H       
  20 H20           -0.9761     3.1955    -0.4900 H       
  21 H21           -2.0220     1.7552    -0.4918 H       
  22 H22           -0.2308     4.1954     1.6750 H       
  23 H23           -0.7457     3.4674     3.2156 H       
  24 H24            0.4249     2.6187     2.1774 H       
  25 H25           -3.6651     2.9465     0.9654 H       
  26 H26           -3.1341     3.6588     2.5078 H       
  27 H27           -2.6193     4.3868     0.9672 H       
  28 H28           -1.0431     0.5970     2.1748 H       
  29 H29           -2.2137     1.4457     3.2130 H       
  30 H30           -2.7447     0.7333     1.6706 H       
@<TRIPOS>BOND
   1    1    2 1
   2    1    5 1
   3    1   11 1
   4    2    3 2
   5    3    4 1
   6    4    5 ar
   7    4    6 ar
   8    5    9 ar
   9    6    7 ar
  10    6   16 1
  11    7    8 ar
  12    7   10 1
  13    8    9 ar
  14    8   17 1
  15    9   18 1
  16   10   19 1
  17   11   12 1
  18   11   20 1
  19   11   21 1
  20   12   13 1
  21   12   14 1
  22   12   15 1
  23   13   22 1
  24   13   23 1
  25   13   24 1
  26   14   25 1
  27   14   26 1
  28   14   27 1
  29   15   28 1
  30   15   29 1
  31   15   30 1

#	End of record

