#	Name: ASD01915958
#	Creating user name:	WinNT
#	Creation time:	15. 06. 2019 20:06

#	Modifying user name:	WinNT
#	Modification time:	15. 06. 2019 20:06

#	Program:	/corina/corina34_cracker 3.40 0067  02.08.2006

@<TRIPOS>MOLECULE
ASD01915958
  39   42    0    0    0
SMALL
NO_CHARGES


@<TRIPOS>ATOM
   1 C1            -0.0165     1.3677     0.0096 C.2     
   2 C2             0.0021    -0.0041     0.0020 C.2     
   3 C3            -1.3057    -0.7789    -0.0020 C.3     
   4 C4            -2.3695     0.0450     0.7207 C.3     
   5 N5            -2.4034     1.4321     0.2715 N.am    
   6 C6            -1.2692     2.1314     0.0352 C.2     
   7 O7            -1.2872     3.3345    -0.1469 O.2     
   8 S8             1.6349     1.9480    -0.0031 S.3     
   9 C9             2.2073     0.3356    -0.0093 C.2     
  10 N10            1.2151    -0.4963    -0.0049 N.2     
  11 O11            4.1124    -0.1830    -1.3697 O.3     
  12 C12            5.4111    -0.5368    -1.5567 C.ar    
  13 C13            5.9158    -0.6739    -2.8416 C.ar    
  14 C14            6.2360    -0.7557    -0.4629 C.ar    
  15 C15            7.5560    -1.1148    -0.6557 C.ar    
  16 C16            8.0553    -1.2555    -1.9373 C.ar    
  17 C17            7.2365    -1.0332    -3.0291 C.ar    
  18 C18            3.6613    -0.0605    -0.0193 C.3     
  19 C19           -3.6379     2.0544     0.0801 C.ar    
  20 C20           -4.2807     2.0045    -1.1579 C.ar    
  21 C21           -5.5019     2.6334    -1.3051 C.ar    
  22 N22           -6.0582     3.2744    -0.2943 N.ar    
  23 C23           -5.4812     3.3434     0.8904 C.ar    
  24 C24           -4.2636     2.7370     1.1215 C.ar    
  25 F25           -3.7167     1.3510    -2.1971 F       
  26 H26           -1.6199    -0.9598    -1.0300 H       
  27 H27           -1.1683    -1.7299     0.5125 H       
  28 H28           -3.3456    -0.4068     0.5438 H       
  29 H29           -2.1632     0.0260     1.7908 H       
  30 H30            5.2766    -0.5004    -3.6947 H       
  31 H31            5.8466    -0.6452     0.5384 H       
  32 H32            8.1985    -1.2853     0.1955 H       
  33 H33            9.0876    -1.5359    -2.0859 H       
  34 H34            7.6288    -1.1440    -4.0292 H       
  35 H35            4.2490     0.7017     0.4923 H       
  36 H36            3.7812    -1.0157     0.4919 H       
  37 H37           -6.0073     2.6005    -2.2589 H       
  38 H38           -5.9706     3.8781     1.6910 H       
  39 H39           -3.7976     2.7980     2.0939 H       
@<TRIPOS>BOND
   1    1    2 2
   2    1    8 1
   3    1    6 1
   4    2    3 1
   5    2   10 1
   6    3    4 1
   7    3   26 1
   8    3   27 1
   9    4    5 1
  10    4   28 1
  11    4   29 1
  12    5    6 am
  13    5   19 1
  14    6    7 2
  15    8    9 1
  16    9   10 2
  17    9   18 1
  18   11   12 1
  19   11   18 1
  20   12   13 ar
  21   12   14 ar
  22   13   17 ar
  23   13   30 1
  24   14   15 ar
  25   14   31 1
  26   15   16 ar
  27   15   32 1
  28   16   17 ar
  29   16   33 1
  30   17   34 1
  31   18   35 1
  32   18   36 1
  33   19   20 ar
  34   19   24 ar
  35   20   21 ar
  36   20   25 1
  37   21   22 ar
  38   21   37 1
  39   22   23 ar
  40   23   24 ar
  41   23   38 1
  42   24   39 1

#	End of record

