#	Name: ASD00731017
#	Creating user name:	WinNT
#	Creation time:	15. 06. 2019 18:37

#	Modifying user name:	WinNT
#	Modification time:	15. 06. 2019 18:37

#	Program:	/corina/corina34_cracker 3.40 0067  02.08.2006

@<TRIPOS>MOLECULE
ASD00731017
 234  234    0    0    0
SMALL
NO_CHARGES


@<TRIPOS>ATOM
   1 C1            -1.1658     7.4087     0.3403 C.2     
   2 O2            -0.8552     6.2365     0.3208 O.2     
   3 N3             1.2227     7.8367     0.3050 N.am    
   4 C4            -0.0973     8.4714     0.3351 C.3     
   5 C5            -4.7767     7.2946    -0.2173 C.2     
   6 O6            -4.8118     8.4479    -0.5911 O.2     
   7 N7            -2.4665     7.7610     0.3611 N.am    
   8 C8            -3.5053     6.7279     0.3600 C.3     
   9 C9            -3.7606     6.2599     1.7941 C.3     
  10 O10           -4.3017     7.3394     2.5583 O.3     
  11 C11           -8.1795     6.0081    -0.8805 C.2     
  12 O12           -7.9329     4.8997    -0.4545 O.2     
  13 N13           -5.8749     6.5199    -0.3182 N.am    
  14 C14           -7.1110     7.0708    -0.8795 C.3     
  15 C15          -11.4615     5.5642    -2.4280 C.2     
  16 O16          -11.3291     6.5495    -3.1227 O.2     
  17 N17           -9.4092     6.2895    -1.3550 N.am    
  18 C18          -10.4480     5.2564    -1.3560 C.3     
  19 C19          -11.1408     5.2284     0.0079 C.3     
  20 C20          -10.0941     5.0399     1.1078 C.3     
  21 O21          -11.8335     6.4609     0.2157 O.3     
  22 C22          -14.8199     4.4113    -3.2970 C.2     
  23 O23          -14.9268     3.7733    -2.2711 O.2     
  24 N24          -12.5150     4.7446    -2.6147 N.am    
  25 C25          -13.5002     5.0438    -3.6568 C.3     
  26 C26          -13.0138     4.4831    -4.9946 C.3     
  27 C27          -11.7583     5.2032    -5.4144 C.ar    
  28 C28          -10.5226     4.7197    -5.0256 C.ar    
  29 C29           -9.3703     5.3782    -5.4088 C.ar    
  30 C30           -9.4535     6.5252    -6.1847 C.ar    
  31 O31           -8.3213     7.1746    -6.5633 O.3     
  32 C32          -10.6946     7.0080    -6.5739 C.ar    
  33 C33          -11.8437     6.3429    -6.1925 C.ar    
  34 C34          -17.9647     3.6998    -5.0194 C.2     
  35 O35          -17.5086     4.0118    -6.0990 O.2     
  36 N36          -15.8812     4.5545    -4.1152 N.am    
  37 C37          -17.1640     3.9396    -3.7654 C.3     
  38 C38          -17.9406     4.8737    -2.8353 C.3     
  39 O39          -18.2750     6.0735    -3.5359 O.3     
  40 C40          -21.4335     2.8696    -5.8200 C.2     
  41 O41          -21.7939     3.0235    -4.6722 O.2     
  42 N42          -19.1876     3.1386    -4.9412 N.am    
  43 C43          -19.9659     2.9055    -6.1603 C.3     
  44 C44          -19.5534     1.5693    -6.7810 C.3     
  45 C45          -18.0409     1.5594    -7.0117 C.3     
  46 O46          -19.9075     0.5039    -5.8970 O.3     
  47 C47          -24.0650     1.0734    -6.1624 C.2     
  48 O48          -23.1841     0.2433    -6.2395 O.2     
  49 N49          -22.3457     2.6664    -6.7912 N.am    
  50 C50          -23.7623     2.5220    -6.4470 C.3     
  51 C51          -24.6230     3.0025    -7.6172 C.3     
  52 C52          -24.4310     4.4852    -7.8063 C.2     
  53 O53          -23.6191     5.0795    -7.1373 O.2     
  54 O54          -25.1620     5.1457    -8.7180 O.3     
  55 C55          -27.0710    -0.9740    -5.7952 C.2     
  56 O56          -27.7959    -0.0758    -6.1675 O.2     
  57 N57          -25.3146     0.7003    -5.8222 N.am    
  58 C58          -25.6089    -0.7079    -5.5456 C.3     
  59 C59          -25.2755    -1.0213    -4.0856 C.3     
  60 C60          -23.7692    -0.8712    -3.8629 C.3     
  61 C61          -23.4358    -1.1846    -2.4029 C.3     
  62 N62          -21.9935    -1.0409    -2.1897 N.pl3   
  63 C63          -21.4560    -1.2735    -0.9459 C.2     
  64 N64          -22.2296    -1.6218     0.0436 N.2     
  65 N65          -20.1025    -1.1386    -0.7458 N.pl3   
  66 C66          -29.4883    -3.6010    -5.0690 C.2     
  67 O67          -28.7124    -4.3417    -4.5031 O.2     
  68 N68          -27.5732    -2.2102    -5.6047 N.am    
  69 C69          -28.9676    -2.4958    -5.9513 C.3     
  70 C70          -29.0502    -2.9308    -7.4159 C.3     
  71 C71          -30.5178    -3.0800    -7.8216 C.3     
  72 C72          -31.1952    -1.7083    -7.7991 C.3     
  73 C73          -30.5999    -3.6663    -9.2324 C.3     
  74 C74          -32.7046    -5.1955    -4.3791 C.2     
  75 O75          -33.2181    -4.7148    -5.3671 O.2     
  76 N76          -30.8163    -3.7663    -4.9087 N.am    
  77 C77          -31.3213    -4.7654    -3.9638 C.3     
  78 C78          -31.3758    -4.1584    -2.5604 C.3     
  79 C79          -29.9564    -3.8362    -2.0886 C.3     
  80 C80          -30.0109    -3.2292    -0.6853 C.3     
  81 N81          -28.6519    -2.9206    -0.2336 N.pl3   
  82 C82          -28.4496    -2.3635     1.0069 C.2     
  83 N83          -29.4671    -2.1098     1.7811 N.2     
  84 N84          -27.1743    -2.0740     1.4309 N.pl3   
  85 C85          -35.7305    -5.5673    -3.4994 C.2     
  86 O86          -35.3675    -4.6266    -2.8336 O.2     
  87 N87          -33.3712    -6.1143    -3.6526 N.am    
  88 C88          -34.7159    -6.5325    -4.0563 C.3     
  89 C89          -34.9973    -7.9361    -3.5162 C.3     
  90 C90          -34.0469    -8.9367    -4.1768 C.3     
  91 C91          -34.3282   -10.3403    -3.6368 C.3     
  92 C92          -33.3778   -11.3409    -4.2974 C.3     
  93 N93          -33.6479   -12.6885    -3.7788 N.3     
  94 O94          -37.0374    -5.7525    -3.7431 O.3     
  95 C95            2.3358     8.5965     0.2953 C.2     
  96 O96            2.2447     9.8058     0.3116 O.2     
  97 C97           20.9369    10.8557     0.0072 C.3     
  98 C98           19.5583    11.5187     0.0387 C.3     
  99 C99           18.4736    10.4397     0.0440 C.3     
 100 C100          17.0950    11.1026     0.0754 C.3     
 101 C101          16.0102    10.0237     0.0807 C.3     
 102 C102          14.6317    10.6866     0.1122 C.3     
 103 C103          13.5469     9.6076     0.1174 C.3     
 104 C104          12.1684    10.2706     0.1489 C.3     
 105 C105          11.0836     9.1916     0.1542 C.3     
 106 C106           9.7050     9.8546     0.1856 C.3     
 107 C107           8.6203     8.7756     0.1909 C.3     
 108 C108           7.2417     9.4385     0.2224 C.3     
 109 C109           6.1569     8.3596     0.2276 C.3     
 110 C110           4.7784     9.0225     0.2591 C.3     
 111 C111           3.6936     7.9436     0.2644 C.3     
 112 H112           1.2956     6.8695     0.2920 H       
 113 H113          -0.2171     9.1027    -0.5454 H       
 114 H114          -0.1869     9.0811     1.2342 H       
 115 H115          -2.7149     8.6985     0.3767 H       
 116 H116          -3.1767     5.8828    -0.2449 H       
 117 H117          -4.4679     5.4306     1.7852 H       
 118 H118          -2.8223     5.9323     2.2419 H       
 119 H119          -4.4887     7.1140     3.4798 H       
 120 H120          -5.8469     5.5975    -0.0193 H       
 121 H121          -6.9291     7.4042    -1.9012 H       
 122 H122          -7.4396     7.9159    -0.2745 H       
 123 H123          -9.6065     7.1760    -1.6957 H       
 124 H124          -9.9943     4.2851    -1.5531 H       
 125 H125         -11.8516     4.4026     0.0374 H       
 126 H126          -9.3832     5.8657     1.0782 H       
 127 H127         -10.5876     5.0200     2.0794 H       
 128 H128          -9.5657     4.0998     0.9493 H       
 129 H129         -11.2617     7.2406     0.2021 H       
 130 H130         -12.6208     3.9566    -2.0591 H       
 131 H131         -13.6253     6.1235    -3.7393 H       
 132 H132         -12.8038     3.4189    -4.8878 H       
 133 H133         -13.7854     4.6270    -5.7510 H       
 134 H134         -10.4583     3.8267    -4.4216 H       
 135 H135          -8.4053     5.0006    -5.1043 H       
 136 H136          -7.9560     6.8699    -7.4051 H       
 137 H137         -10.7620     7.9010    -7.1776 H       
 138 H138         -12.8099     6.7159    -6.4989 H       
 139 H139         -15.7956     5.0647    -4.9357 H       
 140 H140         -16.9862     2.9899    -3.2608 H       
 141 H141         -18.8541     4.3797    -2.5042 H       
 142 H142         -17.3254     5.1181    -1.9694 H       
 143 H143         -18.7696     6.7135    -3.0060 H       
 144 H144         -19.5523     2.8890    -4.0777 H       
 145 H145         -19.7773     3.7100    -6.8711 H       
 146 H146         -20.0670     1.4371    -7.7333 H       
 147 H147         -17.5273     1.6915    -6.0594 H       
 148 H148         -17.7471     0.6074    -7.4539 H       
 149 H149         -17.7709     2.3720    -7.6860 H       
 150 H150         -19.4860     0.5571    -5.0283 H       
 151 H151         -22.0641     2.6157    -7.7181 H       
 152 H152         -23.9843     3.1200    -5.5631 H       
 153 H153         -24.3259     2.4788    -8.5258 H       
 154 H154         -25.6721     2.7961    -7.4054 H       
 155 H155         -25.0034     6.0958    -8.8032 H       
 156 H156         -26.0192     1.3642    -5.7606 H       
 157 H157         -25.0078    -1.3399    -6.1993 H       
 158 H158         -25.8097    -0.3296    -3.4343 H       
 159 H159         -25.5767    -2.0433    -3.8554 H       
 160 H160         -23.2349    -1.5630    -4.5142 H       
 161 H161         -23.4679     0.1507    -4.0931 H       
 162 H162         -23.9701    -0.4929    -1.7517 H       
 163 H163         -23.7370    -2.2066    -2.1728 H       
 164 H164         -21.4178    -0.7817    -2.9261 H       
 165 H165         -21.8503    -1.7859     0.9212 H       
 166 H166         -19.5268    -0.8794    -1.4822 H       
 167 H167         -19.7233    -1.3027     0.1318 H       
 168 H168         -27.0112    -2.9107    -5.2380 H       
 169 H169         -29.5696    -1.5992    -5.8041 H       
 170 H170         -28.5738    -2.1793    -8.0455 H       
 171 H171         -28.5398    -3.8858    -7.5406 H       
 172 H172         -31.0224    -3.7459    -7.1215 H       
 173 H173         -30.6348    -1.0161    -8.4275 H       
 174 H174         -32.2133    -1.7996    -8.1774 H       
 175 H175         -31.2199    -1.3320    -6.7764 H       
 176 H176         -30.1173    -4.6435    -9.2484 H       
 177 H177         -31.6455    -3.7726    -9.5215 H       
 178 H178         -30.0953    -3.0004    -9.9325 H       
 179 H179         -31.4376    -3.2237    -5.4190 H       
 180 H180         -30.6577    -5.6301    -3.9601 H       
 181 H181         -31.9676    -3.2433    -2.5830 H       
 182 H182         -31.8339    -4.8705    -1.8740 H       
 183 H183         -29.3646    -4.7512    -2.0660 H       
 184 H184         -29.4983    -3.1240    -2.7750 H       
 185 H185         -30.6028    -2.3141    -0.7079 H       
 186 H186         -30.4690    -3.9413     0.0011 H       
 187 H187         -27.8947    -3.1095    -0.8097 H       
 188 H188         -29.3244    -1.7167     2.6564 H       
 189 H189         -26.4171    -2.2628     0.8547 H       
 190 H190         -27.0316    -1.6809     2.3061 H       
 191 H191         -32.9605    -6.4988    -2.8623 H       
 192 H192         -34.7822    -6.5417    -5.1442 H       
 193 H193         -34.8442    -7.9476    -2.4371 H       
 194 H194         -36.0279    -8.2116    -3.7400 H       
 195 H195         -34.1999    -8.9252    -5.2560 H       
 196 H196         -33.0163    -8.6611    -3.9531 H       
 197 H197         -34.1751   -10.3518    -2.5576 H       
 198 H198         -35.3588   -10.6159    -3.8605 H       
 199 H199         -33.5309   -11.3294    -5.3765 H       
 200 H200         -32.3472   -11.0653    -4.0736 H       
 201 H201         -34.6148   -12.9418    -3.9165 H       
 202 H202         -33.0325   -13.3681    -4.2002 H       
 203 H203         -37.6503    -5.1073    -3.3648 H       
 204 H204          21.0566    10.2244     0.8877 H       
 205 H205          21.0264    10.2461    -0.8919 H       
 206 H206          21.7097    11.6244     0.0035 H       
 207 H207          19.4688    12.1283     0.9378 H       
 208 H208          19.4386    12.1500    -0.8418 H       
 209 H209          18.5631     9.8300    -0.8552 H       
 210 H210          18.5933     9.8084     0.9244 H       
 211 H211          17.0055    11.7123     0.9745 H       
 212 H212          16.9753    11.7339    -0.8050 H       
 213 H213          16.0998     9.4140    -0.8184 H       
 214 H214          16.1300     9.3924     0.9612 H       
 215 H215          14.5421    11.2963     1.0113 H       
 216 H216          14.5119    11.3179    -0.7683 H       
 217 H217          13.6365     8.9980    -0.7817 H       
 218 H218          13.6667     8.9763     0.9979 H       
 219 H219          12.0788    10.8802     1.0480 H       
 220 H220          12.0486    10.9019    -0.7316 H       
 221 H221          11.1731     8.5820    -0.7450 H       
 222 H222          11.2033     8.5603     1.0346 H       
 223 H223           9.6155    10.4642     1.0847 H       
 224 H224           9.5853    10.4859    -0.6948 H       
 225 H225           8.7098     8.1659    -0.7082 H       
 226 H226           8.7400     8.1443     1.0714 H       
 227 H227           7.1522    10.0482     1.1215 H       
 228 H228           7.1220    10.0698    -0.6581 H       
 229 H229           6.2465     7.7499    -0.6715 H       
 230 H230           6.2767     7.7283     1.1081 H       
 231 H231           4.6888     9.6322     1.1582 H       
 232 H232           4.6586     9.6538    -0.6214 H       
 233 H233           3.8134     7.3122     1.1448 H       
 234 H234           3.7832     7.3339    -0.6348 H       
@<TRIPOS>BOND
   1    1    2 2
   2    1    4 1
   3    1    7 am
   4    3    4 1
   5    3   95 am
   6    3  112 1
   7    4  113 1
   8    4  114 1
   9    5    6 2
  10    5    8 1
  11    5   13 am
  12    7    8 1
  13    7  115 1
  14    8    9 1
  15    8  116 1
  16    9   10 1
  17    9  117 1
  18    9  118 1
  19   10  119 1
  20   11   12 2
  21   11   14 1
  22   11   17 am
  23   13   14 1
  24   13  120 1
  25   14  121 1
  26   14  122 1
  27   15   16 2
  28   15   18 1
  29   15   24 am
  30   17   18 1
  31   17  123 1
  32   18   19 1
  33   18  124 1
  34   19   20 1
  35   19   21 1
  36   19  125 1
  37   20  126 1
  38   20  127 1
  39   20  128 1
  40   21  129 1
  41   22   23 2
  42   22   25 1
  43   22   36 am
  44   24   25 1
  45   24  130 1
  46   25   26 1
  47   25  131 1
  48   26   27 1
  49   26  132 1
  50   26  133 1
  51   27   28 ar
  52   27   33 ar
  53   28   29 ar
  54   28  134 1
  55   29   30 ar
  56   29  135 1
  57   30   31 1
  58   30   32 ar
  59   31  136 1
  60   32   33 ar
  61   32  137 1
  62   33  138 1
  63   34   35 2
  64   34   37 1
  65   34   42 am
  66   36   37 1
  67   36  139 1
  68   37   38 1
  69   37  140 1
  70   38   39 1
  71   38  141 1
  72   38  142 1
  73   39  143 1
  74   40   41 2
  75   40   43 1
  76   40   49 am
  77   42   43 1
  78   42  144 1
  79   43   44 1
  80   43  145 1
  81   44   45 1
  82   44   46 1
  83   44  146 1
  84   45  147 1
  85   45  148 1
  86   45  149 1
  87   46  150 1
  88   47   48 2
  89   47   50 1
  90   47   57 am
  91   49   50 1
  92   49  151 1
  93   50   51 1
  94   50  152 1
  95   51   52 1
  96   51  153 1
  97   51  154 1
  98   52   53 2
  99   52   54 1
 100   54  155 1
 101   55   56 2
 102   55   58 1
 103   55   68 am
 104   57   58 1
 105   57  156 1
 106   58   59 1
 107   58  157 1
 108   59   60 1
 109   59  158 1
 110   59  159 1
 111   60   61 1
 112   60  160 1
 113   60  161 1
 114   61   62 1
 115   61  162 1
 116   61  163 1
 117   62   63 1
 118   62  164 1
 119   63   64 2
 120   63   65 1
 121   64  165 1
 122   65  166 1
 123   65  167 1
 124   66   67 2
 125   66   69 1
 126   66   76 am
 127   68   69 1
 128   68  168 1
 129   69   70 1
 130   69  169 1
 131   70   71 1
 132   70  170 1
 133   70  171 1
 134   71   72 1
 135   71   73 1
 136   71  172 1
 137   72  173 1
 138   72  174 1
 139   72  175 1
 140   73  176 1
 141   73  177 1
 142   73  178 1
 143   74   75 2
 144   74   77 1
 145   74   87 am
 146   76   77 1
 147   76  179 1
 148   77   78 1
 149   77  180 1
 150   78   79 1
 151   78  181 1
 152   78  182 1
 153   79   80 1
 154   79  183 1
 155   79  184 1
 156   80   81 1
 157   80  185 1
 158   80  186 1
 159   81   82 1
 160   81  187 1
 161   82   83 2
 162   82   84 1
 163   83  188 1
 164   84  189 1
 165   84  190 1
 166   85   86 2
 167   85   88 1
 168   85   94 1
 169   87   88 1
 170   87  191 1
 171   88   89 1
 172   88  192 1
 173   89   90 1
 174   89  193 1
 175   89  194 1
 176   90   91 1
 177   90  195 1
 178   90  196 1
 179   91   92 1
 180   91  197 1
 181   91  198 1
 182   92   93 1
 183   92  199 1
 184   92  200 1
 185   93  201 1
 186   93  202 1
 187   94  203 1
 188   95   96 2
 189   95  111 1
 190   97   98 1
 191   97  204 1
 192   97  205 1
 193   97  206 1
 194   98   99 1
 195   98  207 1
 196   98  208 1
 197   99  100 1
 198   99  209 1
 199   99  210 1
 200  100  101 1
 201  100  211 1
 202  100  212 1
 203  101  102 1
 204  101  213 1
 205  101  214 1
 206  102  103 1
 207  102  215 1
 208  102  216 1
 209  103  104 1
 210  103  217 1
 211  103  218 1
 212  104  105 1
 213  104  219 1
 214  104  220 1
 215  105  106 1
 216  105  221 1
 217  105  222 1
 218  106  107 1
 219  106  223 1
 220  106  224 1
 221  107  108 1
 222  107  225 1
 223  107  226 1
 224  108  109 1
 225  108  227 1
 226  108  228 1
 227  109  110 1
 228  109  229 1
 229  109  230 1
 230  110  111 1
 231  110  231 1
 232  110  232 1
 233  111  233 1
 234  111  234 1

#	End of record

