#	Name: ASD03731666
#	Creating user name:	WinNT
#	Creation time:	15. 06. 2019 20:46

#	Modifying user name:	WinNT
#	Modification time:	15. 06. 2019 20:46

#	Program:	/corina/corina34_cracker 3.40 0067  02.08.2006

@<TRIPOS>MOLECULE
ASD03731666
  39   40    0    0    0
SMALL
NO_CHARGES


@<TRIPOS>ATOM
   1 C1            -0.1365     1.4672     0.0333 C.2     
   2 C2            -0.0853    -0.0063     0.0192 C.ar    
   3 C3             1.1399    -0.6648    -0.1384 C.ar    
   4 C4             1.1826    -2.0445    -0.1511 C.ar    
   5 C5             0.0128    -2.7784    -0.0078 C.ar    
   6 C6            -1.2081    -2.1272     0.1487 C.ar    
   7 C7            -1.2597    -0.7503     0.1688 C.ar    
   8 O8             0.8867     2.1124    -0.0920 O.2     
   9 N9            -1.3179     2.0991     0.1796 N.am    
  10 S10           -1.3754     3.7540     0.1956 S.o2    
  11 O11           -2.7505     4.0550     0.3894 O.2     
  12 O12           -0.4004     4.1293     1.1588 O.2     
  13 C13           -0.8457     4.2414    -1.4695 C.3     
  14 F14           -2.3432    -2.8466     0.2868 F       
  15 F15            2.2786     0.0488    -0.2783 F       
  16 O16            0.0593    -4.1350    -0.0209 O.3     
  17 C17           -0.1519    -4.7692    -1.2039 C.ar    
  18 C18           -0.0461    -6.1508    -1.2805 C.ar    
  19 C19           -0.2617    -6.7930    -2.4841 C.ar    
  20 C20           -0.5829    -6.0605    -3.6123 C.ar    
  21 C21           -0.6890    -4.6841    -3.5387 C.ar    
  22 C22           -0.4794    -4.0372    -2.3360 C.ar    
  23 C23           -1.0391    -3.8891    -4.7701 C.3     
  24 C24            0.3044    -6.9497    -0.0516 C.3     
  25 H25            2.1272    -2.5537    -0.2730 H       
  26 H26           -2.2065    -0.2464     0.2955 H       
  27 H27           -2.1345     1.5845     0.2756 H       
  28 H28           -1.5279     3.8176    -2.2064 H       
  29 H29           -0.8537     5.3284    -1.5498 H       
  30 H30            0.1629     3.8710    -1.6529 H       
  31 H31           -0.1791    -7.8682    -2.5443 H       
  32 H32           -0.7508    -6.5646    -4.5525 H       
  33 H33           -0.5667    -2.9623    -2.2781 H       
  34 H34           -2.1220    -3.7865    -4.8406 H       
  35 H35           -0.5839    -2.9007    -4.7061 H       
  36 H36           -0.6648    -4.4050    -5.6543 H       
  37 H37           -0.6095    -7.2313     0.4714 H       
  38 H38            0.8468    -7.8484    -0.3450 H       
  39 H39            0.9293    -6.3470     0.6075 H       
@<TRIPOS>BOND
   1    1    2 1
   2    1    8 2
   3    1    9 am
   4    2    3 ar
   5    2    7 ar
   6    3    4 ar
   7    3   15 1
   8    4    5 ar
   9    4   25 1
  10    5    6 ar
  11    5   16 1
  12    6    7 ar
  13    6   14 1
  14    7   26 1
  15    9   10 am
  16    9   27 1
  17   10   11 2
  18   10   12 2
  19   10   13 1
  20   13   28 1
  21   13   29 1
  22   13   30 1
  23   16   17 1
  24   17   18 ar
  25   17   22 ar
  26   18   19 ar
  27   18   24 1
  28   19   20 ar
  29   19   31 1
  30   20   21 ar
  31   20   32 1
  32   21   22 ar
  33   21   23 1
  34   22   33 1
  35   23   34 1
  36   23   35 1
  37   23   36 1
  38   24   37 1
  39   24   38 1
  40   24   39 1

#	End of record

