#	Name: ASD01410251
#	Creating user name:	WinNT
#	Creation time:	15. 06. 2019 19:17

#	Modifying user name:	WinNT
#	Modification time:	15. 06. 2019 19:17

#	Program:	/corina/corina34_cracker 3.40 0067  02.08.2006

@<TRIPOS>MOLECULE
ASD01410251
  38   40    0    0    0
SMALL
NO_CHARGES


@<TRIPOS>ATOM
   1 C1            -0.1263     1.2043    -1.0283 C.ar    
   2 C2            -0.0273    -0.0476    -0.4539 C.ar    
   3 C3            -1.1395    -0.6477     0.1150 C.ar    
   4 C4            -2.3563    -0.0002     0.1131 C.ar    
   5 C5            -2.4703     1.2669    -0.4648 C.ar    
   6 C6            -1.3423     1.8726    -1.0343 C.ar    
   7 O7            -1.4409     3.1028    -1.5979 O.3     
   8 I8             1.5636     2.0994    -1.8840 I       
   9 C9            -3.7696     1.9652    -0.4707 C.2     
  10 N10           -4.8511     1.3812     0.0823 N.am    
  11 O11           -3.8650     3.0679    -0.9745 O.2     
  12 C12           -7.2660     1.4248     0.0483 C.ar    
  13 C13           -6.0545     2.0899     0.1839 C.ar    
  14 C14           -6.0369     3.4582     0.4207 C.ar    
  15 C15           -7.2239     4.1564     0.5212 C.ar    
  16 C16           -8.4340     3.4911     0.3861 C.ar    
  17 C17           -8.4522     2.1241     0.1495 C.ar    
  18 I18           -0.9707    -2.5477     0.9813 I       
  19 O19           -9.6024     4.1790     0.4860 O.3     
  20 C20           -9.3434     6.1664    -2.5503 C.ar    
  21 C21           -9.0530     5.2315    -1.5758 C.ar    
  22 C22           -9.8855     5.0983    -0.4738 C.ar    
  23 C23          -11.0080     5.9052    -0.3537 C.ar    
  24 C24          -11.2938     6.8386    -1.3311 C.ar    
  25 C25          -10.4625     6.9692    -2.4283 C.ar    
  26 H26            0.9223    -0.5622    -0.4483 H       
  27 H27           -3.2204    -0.4716     0.5572 H       
  28 H28           -1.2764     3.8312    -0.9835 H       
  29 H29           -4.7958     0.4699     0.4100 H       
  30 H30           -7.2802     0.3615    -0.1403 H       
  31 H31           -5.0951     3.9760     0.5266 H       
  32 H32           -7.2104     5.2205     0.7053 H       
  33 H33           -9.3945     1.6068     0.0444 H       
  34 H34           -8.6933     6.2736    -3.4060 H       
  35 H35           -8.1789     4.6044    -1.6718 H       
  36 H36          -11.6579     5.8033     0.5028 H       
  37 H37          -12.1676     7.4666    -1.2384 H       
  38 H38          -10.6878     7.6996    -3.1913 H       
@<TRIPOS>BOND
   1    1    2 ar
   2    1    8 1
   3    1    6 ar
   4    2    3 ar
   5    2   26 1
   6    3    4 ar
   7    3   18 1
   8    4    5 ar
   9    4   27 1
  10    5    6 ar
  11    5    9 1
  12    6    7 1
  13    7   28 1
  14    9   10 am
  15    9   11 2
  16   10   13 1
  17   10   29 1
  18   12   13 ar
  19   12   17 ar
  20   12   30 1
  21   13   14 ar
  22   14   15 ar
  23   14   31 1
  24   15   16 ar
  25   15   32 1
  26   16   17 ar
  27   16   19 1
  28   17   33 1
  29   19   22 1
  30   20   21 ar
  31   20   25 ar
  32   20   34 1
  33   21   22 ar
  34   21   35 1
  35   22   23 ar
  36   23   24 ar
  37   23   36 1
  38   24   25 ar
  39   24   37 1
  40   25   38 1

#	End of record

