#	Name: ASD01410105
#	Creating user name:	WinNT
#	Creation time:	15. 06. 2019 19:16

#	Modifying user name:	WinNT
#	Modification time:	15. 06. 2019 19:16

#	Program:	/corina/corina34_cracker 3.40 0067  02.08.2006

@<TRIPOS>MOLECULE
ASD01410105
  69   72    0    0    0
SMALL
NO_CHARGES


@<TRIPOS>ATOM
   1 C1            -0.6745     0.0283    -1.3113 C.ar    
   2 C2            -0.9282    -1.3458    -1.4347 C.ar    
   3 C3            -2.1963    -1.8261    -1.3164 C.ar    
   4 C4            -3.2598    -0.9462    -1.0696 C.ar    
   5 C5            -3.0145     0.4368    -0.9436 C.ar    
   6 C6            -1.7200     0.9164    -1.0602 C.ar    
   7 C7            -4.6529    -1.1320    -0.9007 C.2     
   8 C8            -5.2112     0.0860    -0.6839 C.2     
   9 N9            -4.2292     1.0477    -0.7072 N.pl3   
  10 C10           -6.6503     0.3389    -0.4577 C.ar    
  11 C11           -7.6057    -0.2799    -1.2652 C.ar    
  12 C12           -8.4027     1.4245     0.7747 C.ar    
  13 C13           -7.0589     1.1929     0.5681 C.ar    
  14 C14           -5.3857    -2.4478    -0.9532 C.3     
  15 C15           -5.1786    -3.0926    -2.3251 C.3     
  16 C16           -5.9226    -4.4284    -2.3784 C.3     
  17 C17           -5.3802    -5.3580    -1.2908 C.3     
  18 C18           -5.5873    -4.7132     0.0811 C.3     
  19 C19           -4.8433    -3.3773     0.1343 C.3     
  20 C20            0.7035     0.5349    -1.4417 C.2     
  21 O21            1.7167    -0.3215    -1.6789 O.3     
  22 C22           -4.4378     2.4847    -0.5129 C.3     
  23 C23           -4.3183     2.8161     0.9524 C.2     
  24 N24           -4.4738     4.0879     1.3705 N.am    
  25 O25            0.9261     1.7248    -1.3352 O.2     
  26 O26           -4.0821     1.9384     1.7553 O.2     
  27 C27           -8.9470    -0.0405    -1.0490 C.ar    
  28 C28           -9.3460     0.8121    -0.0336 C.ar    
  29 C29           -4.3576     4.4100     2.7949 C.3     
  30 C30           -4.7591     5.1481     0.4006 C.3     
  31 C31           -8.8454     2.3462     1.8816 C.3     
  32 N32           -9.3838     1.5521     2.9941 N.3     
  33 C33           -8.3026     0.9149     3.7576 C.3     
  34 C34          -10.2304     2.3758     3.8675 C.3     
  35 Cl35         -11.0357     1.1085     0.2324 Cl      
  36 H36           -0.1121    -2.0271    -1.6251 H       
  37 H37           -2.3835    -2.8853    -1.4130 H       
  38 H38           -1.5225     1.9739    -0.9651 H       
  39 H39           -7.2956    -0.9445    -2.0579 H       
  40 H40           -6.3242     1.6710     1.1990 H       
  41 H41           -6.4497    -2.2779    -0.7885 H       
  42 H42           -5.5650    -2.4304    -3.0999 H       
  43 H43           -4.1146    -3.2625    -2.4898 H       
  44 H44           -6.9866    -4.2585    -2.2136 H       
  45 H45           -5.7750    -4.8878    -3.3558 H       
  46 H46           -5.9103    -6.3097    -1.3288 H       
  47 H47           -4.3162    -5.5279    -1.4556 H       
  48 H48           -6.6513    -4.5433     0.2458 H       
  49 H49           -5.2009    -5.3754     0.8559 H       
  50 H50           -3.7793    -3.5472    -0.0304 H       
  51 H51           -4.9909    -2.9180     1.1117 H       
  52 H52            2.6029     0.0576    -1.7566 H       
  53 H53           -3.6859     3.0401    -1.0735 H       
  54 H54           -5.4314     2.7588    -0.8675 H       
  55 H55           -9.6872    -0.5187    -1.6732 H       
  56 H56           -3.3640     4.1359     3.1495 H       
  57 H57           -4.5128     5.4792     2.9395 H       
  58 H58           -5.1095     3.8547     3.3556 H       
  59 H59           -5.8376     5.2487     0.2790 H       
  60 H60           -4.3445     6.0901     0.7596 H       
  61 H61           -4.3074     4.8944    -0.5584 H       
  62 H62           -7.9938     2.9301     2.2308 H       
  63 H63           -9.6179     3.0183     1.5077 H       
  64 H64           -7.5926     1.6743     4.0851 H       
  65 H65           -8.7214     0.4096     4.6279 H       
  66 H66           -7.7917     0.1879     3.1263 H       
  67 H67          -11.0629     2.7793     3.2911 H       
  68 H68          -10.6159     1.7633     4.6826 H       
  69 H69           -9.6406     3.1960     4.2769 H       
@<TRIPOS>BOND
   1    1    2 ar
   2    1   20 1
   3    1    6 ar
   4    2    3 ar
   5    2   36 1
   6    3    4 ar
   7    3   37 1
   8    4    5 ar
   9    4    7 1
  10    5    6 ar
  11    5    9 1
  12    6   38 1
  13    7    8 2
  14    7   14 1
  15    8    9 1
  16    8   10 1
  17    9   22 1
  18   10   11 ar
  19   10   13 ar
  20   11   27 ar
  21   11   39 1
  22   12   13 ar
  23   12   31 1
  24   12   28 ar
  25   13   40 1
  26   14   15 1
  27   14   19 1
  28   14   41 1
  29   15   16 1
  30   15   42 1
  31   15   43 1
  32   16   17 1
  33   16   44 1
  34   16   45 1
  35   17   18 1
  36   17   46 1
  37   17   47 1
  38   18   19 1
  39   18   48 1
  40   18   49 1
  41   19   50 1
  42   19   51 1
  43   20   21 1
  44   20   25 2
  45   21   52 1
  46   22   23 1
  47   22   53 1
  48   22   54 1
  49   23   24 am
  50   23   26 2
  51   24   29 1
  52   24   30 1
  53   27   28 ar
  54   27   55 1
  55   28   35 1
  56   29   56 1
  57   29   57 1
  58   29   58 1
  59   30   59 1
  60   30   60 1
  61   30   61 1
  62   31   32 1
  63   31   62 1
  64   31   63 1
  65   32   33 1
  66   32   34 1
  67   33   64 1
  68   33   65 1
  69   33   66 1
  70   34   67 1
  71   34   68 1
  72   34   69 1

#	End of record

