#	Name: ASD06170177
#	Creating user name:	WinNT
#	Creation time:	15. 06. 2019 21:05

#	Modifying user name:	WinNT
#	Modification time:	15. 06. 2019 21:05

#	Program:	/corina/corina34_cracker 3.40 0067  02.08.2006

@<TRIPOS>MOLECULE
ASD06170177
  67   71    0    0    0
SMALL
NO_CHARGES


@<TRIPOS>ATOM
   1 N1            -0.0304    -0.6647     0.2927 N.pl3   
   2 N2             0.3102    -1.9772    -0.0477 N.am    
   3 C3             1.6545    -2.0909    -0.0284 C.2     
   4 C4             2.1806    -0.7688     0.3466 C.2     
   5 C5             1.0850     0.0527     0.5270 C.2     
   6 C6             3.5922    -0.3964     0.4995 C.2     
   7 O7             3.8908     0.7399     0.8166 O.2     
   8 N8             4.5576    -1.3130     0.2887 N.am    
   9 C9            -1.3976    -0.1452     0.3760 C.3     
  10 C10           -1.8980    -0.2551     1.8177 C.3     
  11 C11           -3.3259     0.2875     1.9048 C.3     
  12 C12           -0.5915    -3.0010    -0.3560 C.ar    
  13 C13           -1.6202    -2.7732    -1.2608 C.ar    
  14 C14           -2.5090    -3.7862    -1.5631 C.ar    
  15 C15           -2.3754    -5.0263    -0.9659 C.ar    
  16 C16           -1.3522    -5.2564    -0.0646 C.ar    
  17 C17           -0.4567    -4.2493     0.2377 C.ar    
  18 O18            2.3042    -3.0904    -0.2728 O.2     
  19 C19            5.9056    -0.9405     0.3654 C.ar    
  20 C20            6.3137     0.0011     1.3011 C.ar    
  21 C21            7.6422     0.3686     1.3765 C.ar    
  22 C22            8.5709    -0.2037     0.5166 C.ar    
  23 C23            8.1627    -1.1459    -0.4189 C.ar    
  24 C24            6.8350    -1.5170    -0.4905 C.ar    
  25 N25            9.9175     0.1690     0.5926 N.pl3   
  26 N26           12.1198     0.6450    -2.8995 N.ar    
  27 C27           10.8240     0.4416    -2.9590 C.ar    
  28 C28           10.0552     0.2787    -1.8153 C.ar    
  29 C29           10.6593     0.3286    -0.5682 C.ar    
  30 C30           12.0566     0.5480    -0.5169 C.ar    
  31 C31           12.7382     0.6106     0.7064 C.ar    
  32 C32           14.0828     0.8224     0.7228 C.ar    
  33 C33           14.7963     0.9790    -0.4687 C.ar    
  34 C34           14.1552     0.9226    -1.6858 C.ar    
  35 C35           12.7690     0.7053    -1.7304 C.ar    
  36 O36           16.1375     1.1897    -0.4255 O.3     
  37 C37           16.7452     1.2385     0.8669 C.3     
  38 C38            1.1302     1.5070     0.9193 C.3     
  39 H39            4.3188    -2.2305     0.0840 H       
  40 H40           -1.4087     0.8998     0.0663 H       
  41 H41           -2.0473    -0.7253    -0.2793 H       
  42 H42           -1.8869    -1.3001     2.1275 H       
  43 H43           -1.2483     0.3251     2.4730 H       
  44 H44           -3.9756    -0.2926     1.2495 H       
  45 H45           -3.6823     0.2092     2.9319 H       
  46 H46           -3.3370     1.3325     1.5950 H       
  47 H47           -1.7253    -1.8048    -1.7273 H       
  48 H48           -3.3094    -3.6096    -2.2663 H       
  49 H49           -3.0719    -5.8167    -1.2037 H       
  50 H50           -1.2506    -6.2260     0.4001 H       
  51 H51            0.3451    -4.4311     0.9380 H       
  52 H52            5.5915     0.4461     1.9696 H       
  53 H53            7.9593     1.1014     2.1037 H       
  54 H54            8.8846    -1.5907    -1.0877 H       
  55 H55            6.5183    -2.2528    -1.2149 H       
  56 H56           10.3321     0.3158     1.4572 H       
  57 H57           10.3430     0.4005    -3.9251 H       
  58 H58            8.9909     0.1135    -1.8962 H       
  59 H59           12.1978     0.4914     1.6338 H       
  60 H60           14.6042     0.8703     1.6674 H       
  61 H61           14.7155     1.0445    -2.6010 H       
  62 H62           16.3026     2.0489     1.4462 H       
  63 H63           16.5807     0.2920     1.3818 H       
  64 H64           17.8158     1.4120     0.7587 H       
  65 H65            1.1041     1.5912     2.0058 H       
  66 H66            2.0486     1.9567     0.5420 H       
  67 H67            0.2705     2.0249     0.4940 H       
@<TRIPOS>BOND
   1    1    2 1
   2    1    5 1
   3    1    9 1
   4    2    3 am
   5    2   12 1
   6    3    4 1
   7    3   18 2
   8    4    5 2
   9    4    6 1
  10    5   38 1
  11    6    7 2
  12    6    8 am
  13    8   19 1
  14    8   39 1
  15    9   10 1
  16    9   40 1
  17    9   41 1
  18   10   11 1
  19   10   42 1
  20   10   43 1
  21   11   44 1
  22   11   45 1
  23   11   46 1
  24   12   13 ar
  25   12   17 ar
  26   13   14 ar
  27   13   47 1
  28   14   15 ar
  29   14   48 1
  30   15   16 ar
  31   15   49 1
  32   16   17 ar
  33   16   50 1
  34   17   51 1
  35   19   20 ar
  36   19   24 ar
  37   20   21 ar
  38   20   52 1
  39   21   22 ar
  40   21   53 1
  41   22   23 ar
  42   22   25 1
  43   23   24 ar
  44   23   54 1
  45   24   55 1
  46   25   29 1
  47   25   56 1
  48   26   27 ar
  49   26   35 ar
  50   27   28 ar
  51   27   57 1
  52   28   29 ar
  53   28   58 1
  54   29   30 ar
  55   30   31 ar
  56   30   35 ar
  57   31   32 ar
  58   31   59 1
  59   32   33 ar
  60   32   60 1
  61   33   34 ar
  62   33   36 1
  63   34   35 ar
  64   34   61 1
  65   36   37 1
  66   37   62 1
  67   37   63 1
  68   37   64 1
  69   38   65 1
  70   38   66 1
  71   38   67 1

#	End of record

