#	Name: ASD03090494
#	Creating user name:	WinNT
#	Creation time:	15. 06. 2019 20:28

#	Modifying user name:	WinNT
#	Modification time:	15. 06. 2019 20:28

#	Program:	/corina/corina34_cracker 3.40 0067  02.08.2006

@<TRIPOS>MOLECULE
ASD03090494
  42   45    0    0    0
SMALL
NO_CHARGES


@<TRIPOS>ATOM
   1 C1            -0.0180     1.4729     0.0101 C.2     
   2 C2             0.0021    -0.0041     0.0020 C.ar    
   3 C3             1.2200    -0.6982    -0.0133 C.ar    
   4 C4             1.1887    -2.0783    -0.0205 C.ar    
   5 C5            -0.0440    -2.7315    -0.0123 C.ar    
   6 N6            -1.1793    -2.0433     0.0018 N.ar    
   7 C7            -1.1917    -0.7282     0.0153 C.ar    
   8 O8             1.0265     2.0950     0.0035 O.2     
   9 N9            -1.1942     2.1308     0.0193 N.am    
  10 C10           -0.0868    -4.2131    -0.0199 C.ar    
  11 C11           -1.3123    -4.8779    -0.0118 C.ar    
  12 C12           -1.3459    -6.2574    -0.0189 C.ar    
  13 C13           -0.1667    -6.9806    -0.0340 C.ar    
  14 C14            1.0523    -6.3266    -0.0421 C.ar    
  15 C15            1.0983    -4.9474    -0.0409 C.ar    
  16 C16           -1.2140     3.5956     0.0274 C.3     
  17 N17           -6.5411     5.3997     0.3357 N.pl3   
  18 C18           -6.6944     5.4462     1.6946 C.2     
  19 C19           -5.5590     5.0584     2.2967 C.2     
  20 C20           -4.6003     4.7373     1.2367 C.ar    
  21 C21           -3.2778     4.2893     1.2273 C.ar    
  22 C22           -2.6415     4.0786     0.0367 C.ar    
  23 C23           -3.2994     4.3063    -1.1644 C.ar    
  24 C24           -4.6038     4.7487    -1.1782 C.ar    
  25 C25           -5.2711     4.9699     0.0224 C.ar    
  26 H26            2.1598    -0.1662    -0.0198 H       
  27 H27            2.1076    -2.6456    -0.0327 H       
  28 H28           -2.1352    -0.2029     0.0317 H       
  29 H29           -2.0276     1.6344     0.0205 H       
  30 H30           -2.2335    -4.3143     0.0003 H       
  31 H31           -2.2946    -6.7735    -0.0123 H       
  32 H32           -0.1979    -8.0602    -0.0391 H       
  33 H33            1.9696    -6.8964    -0.0538 H       
  34 H34            2.0505    -4.4378    -0.0521 H       
  35 H35           -0.7010     3.9611     0.9169 H       
  36 H36           -0.7094     3.9708    -0.8630 H       
  37 H37           -7.2264     5.6310    -0.3107 H       
  38 H38           -7.5953     5.7502     2.2068 H       
  39 H39           -5.3854     4.9951     3.3608 H       
  40 H40           -2.7594     4.1109     2.1578 H       
  41 H41           -2.7831     4.1351    -2.0975 H       
  42 H42           -5.1068     4.9232    -2.1178 H       
@<TRIPOS>BOND
   1    1    2 1
   2    1    8 2
   3    1    9 am
   4    2    3 ar
   5    2    7 ar
   6    3    4 ar
   7    3   26 1
   8    4    5 ar
   9    4   27 1
  10    5    6 ar
  11    5   10 1
  12    6    7 ar
  13    7   28 1
  14    9   16 1
  15    9   29 1
  16   10   11 ar
  17   10   15 ar
  18   11   12 ar
  19   11   30 1
  20   12   13 ar
  21   12   31 1
  22   13   14 ar
  23   13   32 1
  24   14   15 ar
  25   14   33 1
  26   15   34 1
  27   16   22 1
  28   16   35 1
  29   16   36 1
  30   17   18 1
  31   17   25 1
  32   17   37 1
  33   18   19 2
  34   18   38 1
  35   19   20 1
  36   19   39 1
  37   20   21 ar
  38   20   25 ar
  39   21   22 ar
  40   21   40 1
  41   22   23 ar
  42   23   24 ar
  43   23   41 1
  44   24   25 ar
  45   24   42 1

#	End of record

