#	Name: ASD01903299
#	Creating user name:	WinNT
#	Creation time:	15. 06. 2019 19:54

#	Modifying user name:	WinNT
#	Modification time:	15. 06. 2019 19:54

#	Program:	/corina/corina34_cracker 3.40 0067  02.08.2006

@<TRIPOS>MOLECULE
ASD01903299
  47   51    0    0    0
SMALL
NO_CHARGES


@<TRIPOS>ATOM
   1 C1             0.1190     1.1159    -1.1550 C.ar    
   2 C2             0.0575    -0.1125    -0.5160 C.ar    
   3 C3             1.2029    -0.6352     0.0631 C.ar    
   4 N4             2.3431     0.0181     0.0141 N.ar    
   5 C5             2.4449     1.1970    -0.5879 C.ar    
   6 C6             1.3341     1.7820    -1.1916 C.ar    
   7 C7             3.7503     1.8961    -0.6178 C.2     
   8 O8             3.8491     2.9756    -1.1676 O.2     
   9 N9             4.8286     1.3352    -0.0355 N.am    
  10 C10            6.0770     1.9547    -0.1338 C.ar    
  11 C11            6.1629     3.3174    -0.3288 C.ar    
  12 C12            7.3988     3.9477    -0.4281 C.ar    
  13 C13            8.5709     3.2284    -0.3344 C.ar    
  14 C14            8.5173     1.8344    -0.1351 C.ar    
  15 C15            7.2565     1.1934    -0.0287 C.ar    
  16 N16            9.8061     3.8775    -0.4417 N.am    
  17 C17           10.4910     4.3871     0.5980 C.2     
  18 C18           11.7410     4.9895     0.0887 C.ar    
  19 C19           11.7242     4.7906    -1.3069 C.ar    
  20 C20           10.4674     4.0690    -1.5974 C.2     
  21 O21           10.1408     4.3574     1.7605 O.2     
  22 O22           10.0912     3.7147    -2.6965 O.2     
  23 C23            9.6781     1.0538    -0.0324 C.ar    
  24 N24            9.5812    -0.2424     0.1531 N.ar    
  25 C25            8.4159    -0.8677     0.2510 C.ar    
  26 C26            7.2323    -0.1982     0.1698 C.ar    
  27 C27           12.8102     5.6443     0.6785 C.ar    
  28 C28           13.8564     6.0994    -0.1088 C.ar    
  29 C29           13.8399     5.9044    -1.4772 C.ar    
  30 C30           12.7770     5.2510    -2.0812 C.ar    
  31 C31           12.8353     5.8612     2.1696 C.3     
  32 H32           -0.7587     1.5423    -1.6177 H       
  33 H33           -0.8742    -0.6568    -0.4696 H       
  34 H34            1.1585    -1.5922     0.5618 H       
  35 H35            1.4183     2.7412    -1.6807 H       
  36 H36            4.7379     0.5015     0.4519 H       
  37 H37            5.2586     3.9028    -0.4058 H       
  38 H38            7.4406     5.0159    -0.5812 H       
  39 H39           10.6503     1.5182    -0.1063 H       
  40 H40            8.4049    -1.9368     0.4036 H       
  41 H41            6.2940    -0.7264     0.2524 H       
  42 H42           14.6900     6.6102     0.3500 H       
  43 H43           14.6608     6.2639    -2.0799 H       
  44 H44           12.7693     5.1018    -3.1508 H       
  45 H45           13.3242     5.0147     2.6517 H       
  46 H46           13.3855     6.7749     2.3946 H       
  47 H47           11.8145     5.9510     2.5410 H       
@<TRIPOS>BOND
   1    1    2 ar
   2    1    6 ar
   3    1   32 1
   4    2    3 ar
   5    2   33 1
   6    3    4 ar
   7    3   34 1
   8    4    5 ar
   9    5    6 ar
  10    5    7 1
  11    6   35 1
  12    7    8 2
  13    7    9 am
  14    9   10 1
  15    9   36 1
  16   10   11 ar
  17   10   15 ar
  18   11   12 ar
  19   11   37 1
  20   12   13 ar
  21   12   38 1
  22   13   14 ar
  23   13   16 1
  24   14   15 ar
  25   14   23 ar
  26   15   26 ar
  27   16   17 am
  28   16   20 am
  29   17   18 1
  30   17   21 2
  31   18   19 ar
  32   18   27 ar
  33   19   20 1
  34   19   30 ar
  35   20   22 2
  36   23   24 ar
  37   23   39 1
  38   24   25 ar
  39   25   26 ar
  40   25   40 1
  41   26   41 1
  42   27   28 ar
  43   27   31 1
  44   28   29 ar
  45   28   42 1
  46   29   30 ar
  47   29   43 1
  48   30   44 1
  49   31   45 1
  50   31   46 1
  51   31   47 1

#	End of record

