#	Name: ASD04012006
#	Creating user name:	WinNT
#	Creation time:	15. 06. 2019 20:48

#	Modifying user name:	WinNT
#	Modification time:	15. 06. 2019 20:48

#	Program:	/corina/corina34_cracker 3.40 0067  02.08.2006

@<TRIPOS>MOLECULE
ASD04012006
  31   33    0    0    0
SMALL
NO_CHARGES


@<TRIPOS>ATOM
   1 N1            -0.0169     1.3951     0.0097 N.pl3   
   2 C2             1.2833     1.8292    -0.0004 C.2     
   3 N3             1.5649     3.1400     0.0040 N.2     
   4 C4             0.6036     4.0380     0.0180 C.2     
   5 C5            -0.7362     3.6377     0.0286 C.2     
   6 C6            -1.0374     2.3068     0.0193 C.2     
   7 N7             0.0021    -0.0041     0.0020 N.2     
   8 C8             1.2505    -0.4112    -0.0121 C.2     
   9 C9             2.0862     0.6969    -0.0141 C.2     
  10 O10           -2.3259     1.8946     0.0293 O.3     
  11 C11           -1.8373     4.6665     0.0447 C.3     
  12 C12           -2.1062     5.0924     1.4650 C.ar    
  13 Cl13           1.0003     5.7281     0.0238 Cl      
  14 C14           -1.4163     6.1596     2.0091 C.ar    
  15 C15           -1.6630     6.5502     3.3119 C.ar    
  16 C16           -2.5999     5.8738     4.0707 C.ar    
  17 C17           -3.2904     4.8071     3.5263 C.ar    
  18 C18           -3.0468     4.4193     2.2220 C.ar    
  19 C19            3.5930     0.6748    -0.0286 C.3     
  20 H20            1.5744    -1.4414    -0.0200 H       
  21 H21           -2.4315     0.9335     0.0214 H       
  22 H22           -1.5336     5.5329    -0.5430 H       
  23 H23           -2.7427     4.2364    -0.3833 H       
  24 H24           -0.6844     6.6881     1.4163 H       
  25 H25           -1.1235     7.3835     3.7372 H       
  26 H26           -2.7921     6.1784     5.0888 H       
  27 H27           -4.0221     4.2784     4.1192 H       
  28 H28           -3.5863     3.5859     1.7968 H       
  29 H29            3.9464     0.6746    -1.0597 H       
  30 H30            3.9743     1.5569     0.4860 H       
  31 H31            3.9481    -0.2229     0.4774 H       
@<TRIPOS>BOND
   1    1    7 1
   2    1    2 1
   3    1    6 1
   4    2    3 1
   5    2    9 2
   6    3    4 2
   7    4    5 1
   8    4   13 1
   9    5    6 2
  10    5   11 1
  11    6   10 1
  12    7    8 2
  13    8    9 1
  14    8   20 1
  15    9   19 1
  16   10   21 1
  17   11   12 1
  18   11   22 1
  19   11   23 1
  20   12   14 ar
  21   12   18 ar
  22   14   15 ar
  23   14   24 1
  24   15   16 ar
  25   15   25 1
  26   16   17 ar
  27   16   26 1
  28   17   18 ar
  29   17   27 1
  30   18   28 1
  31   19   29 1
  32   19   30 1
  33   19   31 1

#	End of record

