#	Name: ASD01148724
#	Creating user name:	WinNT
#	Creation time:	15. 06. 2019 19:03

#	Modifying user name:	WinNT
#	Modification time:	15. 06. 2019 19:03

#	Program:	/corina/corina34_cracker 3.40 0067  02.08.2006

@<TRIPOS>MOLECULE
ASD01148724
  58   61    0    0    0
SMALL
NO_CHARGES


@<TRIPOS>ATOM
   1 N1            -0.0160     1.3406     0.0805 N.pl3   
   2 C2             0.0026     0.0048    -0.1116 C.2     
   3 C3             1.3186    -0.4070    -0.1549 C.2     
   4 C4             2.1213     0.7503     0.0214 C.2     
   5 C5             1.2766     1.8043     0.1629 C.2     
   6 C6             1.7988    -1.7845    -0.3474 C.2     
   7 O7             1.0023    -2.6919    -0.4877 O.2     
   8 O8             3.1221    -2.0402    -0.3682 O.3     
   9 C9            -1.2061    -0.8840    -0.2534 C.3     
  10 C10           -1.1691     2.1308     0.1750 C.ar    
  11 C11           -2.0126     2.0026     1.2708 C.ar    
  12 C12           -3.1484     2.7828     1.3610 C.ar    
  13 C13           -3.4464     3.6911     0.3615 C.ar    
  14 C14           -2.6086     3.8210    -0.7307 C.ar    
  15 C15           -1.4679     3.0475    -0.8239 C.ar    
  16 S16           -4.2195     2.6206     2.7507 S.o2    
  17 O17           -5.4889     3.0353     2.2650 O.2     
  18 O18           -4.0071     1.2905     3.2034 O.2     
  19 C19           -3.5789     3.8137     3.9576 C.3     
  20 C20            2.4307     5.8517     0.7570 C.ar    
  21 C21            3.3309     4.9452     0.1968 C.ar    
  22 C22            2.9581     3.6338     0.0044 C.ar    
  23 C23            1.6780     3.2114     0.3699 C.ar    
  24 C24            0.7774     4.1197     0.9308 C.ar    
  25 C25            1.1521     5.4306     1.1228 C.ar    
  26 C26            2.8351     7.2624     0.9690 C.ar    
  27 C27            1.9377     8.1707     1.5286 C.ar    
  28 C28            2.3191     9.4822     1.7242 C.ar    
  29 C29            3.5904     9.8968     1.3652 C.ar    
  30 C30            4.4854     8.9988     0.8090 C.ar    
  31 C31            4.1158     7.6837     0.6145 C.ar    
  32 Cl32           4.0636    11.5486     1.6128 Cl      
  33 C33            3.5235    -3.4220    -0.5623 C.3     
  34 C34            5.0507    -3.5150    -0.5572 C.3     
  35 H35            3.2005     0.7859     0.0399 H       
  36 H36           -1.4858    -0.9519    -1.3047 H       
  37 H37           -0.9719    -1.8789     0.1252 H       
  38 H38           -2.0348    -0.4641     0.3167 H       
  39 H39           -1.7806     1.2933     2.0514 H       
  40 H40           -4.3354     4.3000     0.4342 H       
  41 H41           -2.8441     4.5309    -1.5098 H       
  42 H42           -0.8114     3.1528    -1.6749 H       
  43 H43           -3.6143     4.8163     3.5314 H       
  44 H44           -4.1892     3.7808     4.8601 H       
  45 H45           -2.5482     3.5610     4.2065 H       
  46 H46            4.3206     5.2721    -0.0862 H       
  47 H47            3.6549     2.9323    -0.4300 H       
  48 H48           -0.2128     3.7941     1.2134 H       
  49 H49            0.4559     6.1331     1.5565 H       
  50 H50            0.9456     7.8484     1.8084 H       
  51 H51            1.6247    10.1866     2.1577 H       
  52 H52            5.4758     9.3272     0.5306 H       
  53 H53            4.8161     6.9829     0.1844 H       
  54 H54            3.1195    -4.0344     0.2439 H       
  55 H55            3.1409    -3.7808    -1.5178 H       
  56 H56            5.4547    -2.9026    -1.3634 H       
  57 H57            5.4333    -3.1562     0.3983 H       
  58 H58            5.3520    -4.5523    -0.7029 H       
@<TRIPOS>BOND
   1    1    2 1
   2    1    5 1
   3    1   10 1
   4    2    3 2
   5    2    9 1
   6    3    4 1
   7    3    6 1
   8    4    5 2
   9    4   35 1
  10    5   23 1
  11    6    7 2
  12    6    8 1
  13    8   33 1
  14    9   36 1
  15    9   37 1
  16    9   38 1
  17   10   11 ar
  18   10   15 ar
  19   11   12 ar
  20   11   39 1
  21   12   13 ar
  22   12   16 1
  23   13   14 ar
  24   13   40 1
  25   14   15 ar
  26   14   41 1
  27   15   42 1
  28   16   17 2
  29   16   18 2
  30   16   19 1
  31   19   43 1
  32   19   44 1
  33   19   45 1
  34   20   21 ar
  35   20   25 ar
  36   20   26 1
  37   21   22 ar
  38   21   46 1
  39   22   23 ar
  40   22   47 1
  41   23   24 ar
  42   24   25 ar
  43   24   48 1
  44   25   49 1
  45   26   27 ar
  46   26   31 ar
  47   27   28 ar
  48   27   50 1
  49   28   29 ar
  50   28   51 1
  51   29   30 ar
  52   29   32 1
  53   30   31 ar
  54   30   52 1
  55   31   53 1
  56   33   34 1
  57   33   54 1
  58   33   55 1
  59   34   56 1
  60   34   57 1
  61   34   58 1

#	End of record

