#	Name: ASD01918566
#	Creating user name:	WinNT
#	Creation time:	15. 06. 2019 20:11

#	Modifying user name:	WinNT
#	Modification time:	15. 06. 2019 20:11

#	Program:	/corina/corina34_cracker 3.40 0067  02.08.2006

@<TRIPOS>MOLECULE
ASD01918566
  40   43    0    0    0
SMALL
NO_CHARGES


@<TRIPOS>ATOM
   1 F1            -0.4370     0.4742    -2.4232 F       
   2 C2            -0.3048     1.7801    -2.1035 C.ar    
   3 C3             0.9573     2.3438    -1.9590 C.ar    
   4 C4             1.0472     3.6854    -1.6313 C.ar    
   5 C5            -0.1205     4.4194    -1.4588 C.ar    
   6 N6            -0.0431     5.7718    -1.1291 N.am    
   7 C7            -1.1649     6.5166    -1.0713 C.2     
   8 O8            -2.2326     6.0340    -1.3966 O.2     
   9 C9            -1.0976     7.9165    -0.6138 C.ar    
  10 C10            0.1137     8.4774    -0.2467 C.ar    
  11 C11            0.1797     9.8085     0.1888 C.ar    
  12 C12           -0.9587    10.5971     0.2634 C.ar    
  13 C13           -2.2078    10.0745    -0.0974 C.ar    
  14 C14           -3.3760    10.8591    -0.0282 C.ar    
  15 C15           -4.5608    10.2849    -0.3953 C.ar    
  16 C16           -4.5877     8.9607    -0.8223 C.ar    
  17 N17           -3.4959     8.2332    -0.8847 N.ar    
  18 C18           -2.3092     8.7343    -0.5470 C.ar    
  19 C19            1.4851    10.3811     0.5753 C.2     
  20 O20            1.5299    11.3807     1.2655 O.2     
  21 C21            2.7365     9.7389     0.1231 C.ar    
  22 C22            2.7682     8.9656    -1.0441 C.ar    
  23 N23            3.9092     8.4096    -1.4112 N.ar    
  24 C24            5.0054     8.5745    -0.6969 C.ar    
  25 N25            5.0205     9.2938     0.4084 N.ar    
  26 C26            3.9261     9.8909     0.8462 C.ar    
  27 N27           -1.3051     3.8474    -1.6050 N.ar    
  28 C28           -1.4240     2.5724    -1.9220 C.ar    
  29 H29            1.8475     1.7485    -2.0988 H       
  30 H30            2.0119     4.1557    -1.5109 H       
  31 H31            0.8181     6.1767    -0.9413 H       
  32 H32            1.0151     7.8846    -0.2957 H       
  33 H33           -0.8821    11.6198     0.6020 H       
  34 H34           -3.3365    11.8853     0.3060 H       
  35 H35           -5.4751    10.8582    -0.3538 H       
  36 H36           -5.5308     8.5196    -1.1094 H       
  37 H37            1.8745     8.8257    -1.6343 H       
  38 H38            5.9201     8.1050    -1.0274 H       
  39 H39            3.9477    10.4827     1.7494 H       
  40 H40           -2.4073     2.1409    -2.0374 H       
@<TRIPOS>BOND
   1    1    2 1
   2    2   28 ar
   3    2    3 ar
   4    3    4 ar
   5    3   29 1
   6    4    5 ar
   7    4   30 1
   8    5    6 1
   9    5   27 ar
  10    6    7 am
  11    6   31 1
  12    7    8 2
  13    7    9 1
  14    9   18 ar
  15    9   10 ar
  16   10   11 ar
  17   10   32 1
  18   11   12 ar
  19   11   19 1
  20   12   13 ar
  21   12   33 1
  22   13   18 ar
  23   13   14 ar
  24   14   15 ar
  25   14   34 1
  26   15   16 ar
  27   15   35 1
  28   16   17 ar
  29   16   36 1
  30   17   18 ar
  31   19   20 2
  32   19   21 1
  33   21   26 ar
  34   21   22 ar
  35   22   23 ar
  36   22   37 1
  37   23   24 ar
  38   24   25 ar
  39   24   38 1
  40   25   26 ar
  41   26   39 1
  42   27   28 ar
  43   28   40 1

#	End of record

