#	Name: ASD01870090
#	Creating user name:	WinNT
#	Creation time:	15. 06. 2019 19:38

#	Modifying user name:	WinNT
#	Modification time:	15. 06. 2019 19:38

#	Program:	/corina/corina34_cracker 3.40 0067  02.08.2006

@<TRIPOS>MOLECULE
ASD01870090
  44   48    0    0    0
SMALL
NO_CHARGES


@<TRIPOS>ATOM
   1 C1            -0.0167     1.3776     0.0096 C.ar    
   2 C2             0.0021    -0.0041     0.0020 C.ar    
   3 N3             1.1073     2.0676     0.0026 N.ar    
   4 C4             2.2848     1.4745    -0.0118 C.ar    
   5 C5             2.3820     0.0957    -0.0201 C.ar    
   6 C6             1.2220    -0.6633    -0.0131 C.ar    
   7 C7             3.7320    -0.5740    -0.0366 C.3     
   8 C8             4.6551    -0.2737    -1.2192 C.3     
   9 C9             4.1449     0.6691    -2.2784 C.2     
  10 O10            3.3685     1.5456    -1.9832 O.2     
  11 C11            4.6036     0.5179    -3.7059 C.3     
  12 C12            3.9414     1.5923    -4.5708 C.3     
  13 C13            4.4070     1.4389    -6.0201 C.3     
  14 C14            5.9274     1.5962    -6.0867 C.3     
  15 C15            6.5896     0.5217    -5.2218 C.3     
  16 C16            6.1240     0.6752    -3.7724 C.3     
  17 C17            4.2110    -0.8672    -4.2238 C.3     
  18 C18            4.6766    -1.0207    -5.6731 C.3     
  19 C19            4.0144     0.0538    -6.5380 C.3     
  20 C20            6.1971    -0.8634    -5.7396 C.3     
  21 C21            4.9630     0.3130     0.1599 C.3     
  22 H22           -0.9627     1.8985     0.0169 H       
  23 H23           -0.9217    -0.5635     0.0082 H       
  24 H24            3.1838     2.0730    -0.0175 H       
  25 H25            1.2673    -1.7423    -0.0190 H       
  26 H26            3.7632    -1.5792     0.3838 H       
  27 H27            5.2937    -1.0814    -1.5768 H       
  28 H28            2.8582     1.4803    -4.5234 H       
  29 H29            4.2210     2.5791    -4.2019 H       
  30 H30            3.9352     2.2043    -6.6363 H       
  31 H31            6.2592     1.4868    -7.1192 H       
  32 H32            6.2071     2.5829    -5.7177 H       
  33 H33            7.6728     0.6338    -5.2692 H       
  34 H34            6.4037     1.6620    -3.4035 H       
  35 H35            6.5958    -0.0902    -3.1563 H       
  36 H36            4.6827    -1.6326    -3.6076 H       
  37 H37            3.1278    -0.9793    -4.1764 H       
  38 H38            4.3969    -2.0074    -6.0420 H       
  39 H39            2.9312    -0.0583    -6.4906 H       
  40 H40            4.3462    -0.0556    -7.5705 H       
  41 H41            6.5288    -0.9727    -6.7722 H       
  42 H42            6.6688    -1.6288    -5.1235 H       
  43 H43            4.7966     1.3810     0.3011 H       
  44 H44            5.8045    -0.1085     0.7097 H       
@<TRIPOS>BOND
   1    1    2 ar
   2    1    3 ar
   3    1   22 1
   4    2    6 ar
   5    2   23 1
   6    3    4 ar
   7    4    5 ar
   8    4   24 1
   9    5    6 ar
  10    5    7 1
  11    6   25 1
  12    7    8 1
  13    7   21 1
  14    7   26 1
  15    8    9 1
  16    8   21 1
  17    8   27 1
  18    9   10 2
  19    9   11 1
  20   11   12 1
  21   11   17 1
  22   11   16 1
  23   12   13 1
  24   12   28 1
  25   12   29 1
  26   13   14 1
  27   13   19 1
  28   13   30 1
  29   14   15 1
  30   14   31 1
  31   14   32 1
  32   15   16 1
  33   15   20 1
  34   15   33 1
  35   16   34 1
  36   16   35 1
  37   17   18 1
  38   17   36 1
  39   17   37 1
  40   18   19 1
  41   18   20 1
  42   18   38 1
  43   19   39 1
  44   19   40 1
  45   20   41 1
  46   20   42 1
  47   21   43 1
  48   21   44 1

#	End of record

