#	Name: ASD02610010
#	Creating user name:	WinNT
#	Creation time:	15. 06. 2019 20:25

#	Modifying user name:	WinNT
#	Modification time:	15. 06. 2019 20:25

#	Program:	/corina/corina34_cracker 3.40 0067  02.08.2006

@<TRIPOS>MOLECULE
ASD02610010
 100  103    0    0    0
SMALL
NO_CHARGES


@<TRIPOS>ATOM
   1 C1             0.5304     0.9736    -0.1757 C.3     
   2 C2             0.7650    -0.5123    -0.5292 C.3     
   3 C3             2.0383    -0.8814     0.1909 C.2     
   4 C4             2.6996     0.1921     0.5627 C.2     
   5 C5             1.9747     1.4377     0.1401 C.3     
   6 C6             3.9938     0.1465     1.3351 C.3     
   7 C7             4.9360     1.2458     0.8431 C.3     
   8 C8             4.9954     1.6058    -0.5574 C.3     
   9 C9             3.9225     2.6435    -0.9247 C.3     
  10 C10            2.5713     2.0309    -1.1293 C.3     
  11 O11            0.9306    -0.6711    -1.9630 O.3     
  12 C12            0.5325    -1.8421    -2.4990 C.2     
  13 O13            0.0599    -2.7067    -1.7875 O.2     
  14 C14            0.6698    -2.0733    -3.9437 C.2     
  15 C15            1.2558    -1.0013    -4.8260 C.3     
  16 C16            0.2768    -3.2294    -4.4729 C.2     
  17 C17           -0.3091    -4.3015    -3.5906 C.3     
  18 C18            2.4923    -2.2949     0.4500 C.3     
  19 O19           -0.3268     1.1045     0.9889 O.3     
  20 C20           -1.6465     1.2067     0.7658 C.2     
  21 C21           -2.5983     1.3455     1.9259 C.3     
  22 O22           -2.0713     1.1874    -0.3652 O.2     
  23 H23            1.9714     2.1684     0.9489 H       
  24 O24            1.6698     3.0512    -1.6339 O.3     
  25 C25            2.6889     0.9241    -2.1790 C.3     
  26 C26            1.4240     4.0984    -0.8309 C.2     
  27 O27            4.7955     0.4134    -1.3615 O.3     
  28 C28            5.5498     0.2890    -2.4648 C.2     
  29 C29            5.3979    -0.9221    -3.3488 C.3     
  30 O30            6.3505     1.1480    -2.7493 O.2     
  31 O31            3.8174     0.4965     2.7203 O.3     
  32 C32            5.0776     1.0069     3.2049 C.3     
  33 C33            5.8532     1.5808     1.9751 C.3     
  34 H34            4.4629    -0.8320     1.2330 H       
  35 O35            3.9844     2.2531     1.1921 O.3     
  36 C36           -4.0320     1.4426     1.4005 C.3     
  37 C37           -4.9983     1.5835     2.5783 C.3     
  38 C38           -6.4320     1.6806     2.0530 C.3     
  39 C39           -7.3983     1.8215     3.2308 C.3     
  40 C40            6.3664    -0.8171    -4.5286 C.3     
  41 C41            6.2122    -2.0466    -5.4260 C.3     
  42 C42            0.5256     5.2135    -1.3005 C.3     
  43 H43            4.9336     1.7620     3.9778 H       
  44 O44            1.9232     4.1471     0.2683 O.2     
  45 O45            5.8866    -0.0931     3.6616 O.3     
  46 C46            7.2237     0.2402     3.2338 C.3     
  47 O47            7.0578     0.7888     1.9105 O.3     
  48 C48            6.1258     3.0819     2.0894 C.3     
  49 O49            8.0389    -0.9326     3.1882 O.3     
  50 C50            7.5436    -1.9511     2.3168 C.3     
  51 C51            8.4903    -3.1528     2.3470 C.3     
  52 H52            7.6618     0.9827     3.9007 H       
  53 H53            0.1203     1.5189    -1.0257 H       
  54 H54           -0.0640    -1.1231    -0.1719 H       
  55 H55            5.9797     2.0196    -0.7765 H       
  56 H56            3.8572     3.3806    -0.1243 H       
  57 H57            4.2220     3.1495    -1.8425 H       
  58 H58            2.3362    -1.1314    -4.8872 H       
  59 H59            0.8237    -1.0757    -5.8239 H       
  60 H60            1.0312    -0.0213    -4.4050 H       
  61 H61            0.3778    -3.3993    -5.5347 H       
  62 H62            0.4229    -4.5921    -2.8371 H       
  63 H63           -1.2039    -3.9190    -3.0995 H       
  64 H64           -0.5702    -5.1687    -4.1972 H       
  65 H65            1.7625    -2.9921     0.0383 H       
  66 H66            3.4595    -2.4587    -0.0252 H       
  67 H67            2.5832    -2.4562     1.5241 H       
  68 H68           -2.5078     0.4755     2.5762 H       
  69 H69           -2.3559     2.2468     2.4889 H       
  70 H70            1.7457     0.8323    -2.7175 H       
  71 H71            3.4854     1.1720    -2.8807 H       
  72 H72            2.9196    -0.0206    -1.6866 H       
  73 H73            5.6210    -1.8213    -2.7745 H       
  74 H74            4.3750    -0.9736    -3.7218 H       
  75 H75            3.8377     2.3428     2.1437 H       
  76 H76           -4.1225     2.3126     0.7502 H       
  77 H77           -4.2744     0.5413     0.8375 H       
  78 H78           -4.9078     0.7135     3.2287 H       
  79 H79           -4.7559     2.4848     3.1414 H       
  80 H80           -6.5225     2.5506     1.4026 H       
  81 H81           -6.6744     0.7793     1.4899 H       
  82 H82           -7.1559     2.7228     3.7938 H       
  83 H83           -8.4197     1.8907     2.8565 H       
  84 H84           -7.3078     0.9515     3.8811 H       
  85 H85            6.1433     0.0822    -5.1028 H       
  86 H86            7.3893    -0.7655    -4.1555 H       
  87 H87            6.9022    -1.9718    -6.2665 H       
  88 H88            6.4353    -2.9458    -4.8517 H       
  89 H89            5.1893    -2.0982    -5.7990 H       
  90 H90            0.1725     4.9955    -2.3085 H       
  91 H91           -0.3275     5.3006    -0.6276 H       
  92 H92            1.0819     6.1508    -1.3052 H       
  93 H93            5.1866     3.6103     2.2531 H       
  94 H94            6.7974     3.2664     2.9279 H       
  95 H95            6.5877     3.4385     1.1688 H       
  96 H96            6.5522    -2.2612     2.6469 H       
  97 H97            7.4829    -1.5619     1.3005 H       
  98 H98            9.4817    -2.8426     2.0169 H       
  99 H99            8.5510    -3.5420     3.3634 H       
 100 H100           8.1125    -3.9297     1.6824 H       
@<TRIPOS>BOND
   1    1    2 1
   2    1    5 1
   3    1   19 1
   4    1   53 1
   5    2    3 1
   6    2   11 1
   7    2   54 1
   8    3    4 2
   9    3   18 1
  10    4    5 1
  11    4    6 1
  12    5   10 1
  13    5   23 1
  14    6    7 1
  15    6   31 1
  16    6   34 1
  17    7   33 1
  18    7   35 1
  19    7    8 1
  20    8    9 1
  21    8   27 1
  22    8   55 1
  23    9   10 1
  24    9   56 1
  25    9   57 1
  26   10   24 1
  27   10   25 1
  28   11   12 1
  29   12   13 2
  30   12   14 1
  31   14   15 1
  32   14   16 2
  33   15   58 1
  34   15   59 1
  35   15   60 1
  36   16   17 1
  37   16   61 1
  38   17   62 1
  39   17   63 1
  40   17   64 1
  41   18   65 1
  42   18   66 1
  43   18   67 1
  44   19   20 1
  45   20   21 1
  46   20   22 2
  47   21   36 1
  48   21   68 1
  49   21   69 1
  50   24   26 1
  51   25   70 1
  52   25   71 1
  53   25   72 1
  54   26   42 1
  55   26   44 2
  56   27   28 1
  57   28   29 1
  58   28   30 2
  59   29   40 1
  60   29   73 1
  61   29   74 1
  62   31   32 1
  63   32   33 1
  64   32   43 1
  65   32   45 1
  66   33   48 1
  67   33   47 1
  68   35   75 1
  69   36   37 1
  70   36   76 1
  71   36   77 1
  72   37   38 1
  73   37   78 1
  74   37   79 1
  75   38   39 1
  76   38   80 1
  77   38   81 1
  78   39   82 1
  79   39   83 1
  80   39   84 1
  81   40   41 1
  82   40   85 1
  83   40   86 1
  84   41   87 1
  85   41   88 1
  86   41   89 1
  87   42   90 1
  88   42   91 1
  89   42   92 1
  90   45   46 1
  91   46   47 1
  92   46   49 1
  93   46   52 1
  94   48   93 1
  95   48   94 1
  96   48   95 1
  97   49   50 1
  98   50   51 1
  99   50   96 1
 100   50   97 1
 101   51   98 1
 102   51   99 1
 103   51  100 1

#	End of record

