#	Name: ASD00170052
#	Creating user name:	WinNT
#	Creation time:	15. 06. 2019 18:31

#	Modifying user name:	WinNT
#	Modification time:	15. 06. 2019 18:31

#	Program:	/corina/corina34_cracker 3.40 0067  02.08.2006

@<TRIPOS>MOLECULE
ASD00170052
  32   33    0    0    0
SMALL
NO_CHARGES


@<TRIPOS>ATOM
   1 C1            -0.0214     1.3258    -0.1139 C.2     
   2 C2             0.0015     0.0025    -0.1441 C.2     
   3 C3            -1.3078    -0.5945     0.0156 C.2     
   4 C4            -2.3035     0.3431     0.1655 C.2     
   5 S5            -1.6558     1.9191     0.1205 S.3     
   6 N6            -3.6410     0.0482     0.3347 N.pl3   
   7 C7             1.1944     2.2049    -0.2554 C.3     
   8 C8            -1.5462    -2.0374     0.0168 C.2     
   9 C9            -1.7876    -2.7483    -1.2579 C.ar    
  10 O10           -1.5459    -2.6537     1.0670 O.2     
  11 C11           -1.9082    -4.1385    -1.2729 C.ar    
  12 C12           -2.1338    -4.7962    -2.4647 C.ar    
  13 C13           -2.2407    -4.0808    -3.6438 C.ar    
  14 C14           -2.1216    -2.7009    -3.6365 C.ar    
  15 C15           -1.9016    -2.0309    -2.4497 C.ar    
  16 C16            1.2631    -0.8013    -0.3270 C.3     
  17 C17            1.8783    -1.1032     1.0410 C.3     
  18 Cl18          -2.2561    -1.8119    -5.1215 Cl      
  19 H19           -3.9460    -0.8708     0.2777 H       
  20 H20           -4.2761     0.7600     0.5106 H       
  21 H21            1.3538     2.4377    -1.3083 H       
  22 H22            1.0415     3.1290     0.3019 H       
  23 H23            2.0673     1.6837     0.1376 H       
  24 H24           -1.8247    -4.6987    -0.3533 H       
  25 H25           -2.2269    -5.8721    -2.4771 H       
  26 H26           -2.4173    -4.6004    -4.5739 H       
  27 H27           -1.8092    -0.9548    -2.4447 H       
  28 H28            1.0274    -1.7370    -0.8339 H       
  29 H29            1.9729    -0.2319    -0.9269 H       
  30 H30            2.1140    -0.1674     1.5479 H       
  31 H31            1.1684    -1.6726     1.6409 H       
  32 H32            2.7907    -1.6846     0.9087 H       
@<TRIPOS>BOND
   1    1    2 2
   2    1    7 1
   3    1    5 1
   4    2    3 1
   5    2   16 1
   6    3    4 2
   7    3    8 1
   8    4    5 1
   9    4    6 1
  10    6   19 1
  11    6   20 1
  12    7   21 1
  13    7   22 1
  14    7   23 1
  15    8    9 1
  16    8   10 2
  17    9   11 ar
  18    9   15 ar
  19   11   12 ar
  20   11   24 1
  21   12   13 ar
  22   12   25 1
  23   13   14 ar
  24   13   26 1
  25   14   15 ar
  26   14   18 1
  27   15   27 1
  28   16   17 1
  29   16   28 1
  30   16   29 1
  31   17   30 1
  32   17   31 1
  33   17   32 1

#	End of record

