#	Name: ASD01885311
#	Creating user name:	WinNT
#	Creation time:	15. 06. 2019 19:49

#	Modifying user name:	WinNT
#	Modification time:	15. 06. 2019 19:49

#	Program:	/corina/corina34_cracker 3.40 0067  02.08.2006

@<TRIPOS>MOLECULE
ASD01885311
  52   55    0    0    0
SMALL
NO_CHARGES


@<TRIPOS>ATOM
   1 C1             1.2780     1.4557     1.0374 C.2     
   2 C2             1.2094     0.0518     1.0670 C.2     
   3 C3             1.5509    -0.6563    -0.0538 C.2     
   4 C4             1.9641     0.0330    -1.2143 C.2     
   5 C5             2.0225     1.3792    -1.2205 C.2     
   6 N6             1.6843     2.0946    -0.1088 N.pl3   
   7 C7             1.6447     3.4281     0.1749 C.2     
   8 N8             1.2402     3.5549     1.4114 N.2     
   9 N9             1.0163     2.3988     1.9297 N.2     
  10 C10            2.0021     4.5503    -0.7653 C.3     
  11 N11            1.4916    -2.0479    -0.0489 N.pl3   
  12 C12            0.2087    -2.7418     0.1285 C.3     
  13 C13            0.0187    -3.7300    -1.0266 C.3     
  14 C14            1.2315    -4.6604    -1.1014 C.3     
  15 C15            2.4925    -3.8367    -1.3728 C.3     
  16 C16            2.7097    -2.8498    -0.2272 C.3     
  17 C17            1.3829    -5.3941     0.2062 C.ar    
  18 C18            1.5780    -4.6861     1.3774 C.ar    
  19 C19            1.7168    -5.3591     2.5769 C.ar    
  20 C20            1.6602    -6.7400     2.6052 C.ar    
  21 C21            1.4641    -7.4479     1.4341 C.ar    
  22 C22            1.3209    -6.7747     0.2353 C.ar    
  23 Cl23           0.6988    -0.7733     2.5065 Cl      
  24 O24            0.8371     4.9572    -1.4859 O.3     
  25 C25            1.0678     6.0223    -2.4102 C.3     
  26 C26           -0.2408     6.3733    -3.1209 C.3     
  27 C27            3.6994    -4.7710    -1.4800 C.3     
  28 F28            3.4981    -5.6744    -2.5291 F       
  29 F29            4.8518    -4.0175    -1.7281 F       
  30 F30            3.8519    -5.4753    -0.2809 F       
  31 H31            2.2349    -0.5210    -2.1010 H       
  32 H32            2.3399     1.8968    -2.1136 H       
  33 H33            2.3888     5.3940    -0.1938 H       
  34 H34            2.7624     4.2079    -1.4673 H       
  35 H35            0.2136    -3.2826     1.0749 H       
  36 H36           -0.6035    -2.0149     0.1249 H       
  37 H37           -0.8822    -4.3195    -0.8566 H       
  38 H38           -0.0768    -3.1807    -1.9632 H       
  39 H39            1.0877    -5.3804    -1.9070 H       
  40 H40            2.3740    -3.2869    -2.3065 H       
  41 H41            3.5485    -2.1949    -0.4633 H       
  42 H42            2.9183    -3.3971     0.6920 H       
  43 H43            1.6223    -3.6073     1.3553 H       
  44 H44            1.8700    -4.8061     3.4918 H       
  45 H45            1.7694    -7.2658     3.5422 H       
  46 H46            1.4157    -8.5266     1.4569 H       
  47 H47            1.1685    -7.3278    -0.6797 H       
  48 H48            1.4352     6.8965    -1.8728 H       
  49 H49            1.8088     5.7105    -3.1463 H       
  50 H50           -0.9818     6.6852    -2.3848 H       
  51 H51           -0.0648     7.1858    -3.8259 H       
  52 H52           -0.6082     5.4991    -3.6584 H       
@<TRIPOS>BOND
   1    1    2 1
   2    1    6 1
   3    1    9 2
   4    2    3 2
   5    2   23 1
   6    3    4 1
   7    3   11 1
   8    4    5 2
   9    4   31 1
  10    5    6 1
  11    5   32 1
  12    6    7 1
  13    7    8 2
  14    7   10 1
  15    8    9 1
  16   10   24 1
  17   10   33 1
  18   10   34 1
  19   11   12 1
  20   11   16 1
  21   12   13 1
  22   12   35 1
  23   12   36 1
  24   13   14 1
  25   13   37 1
  26   13   38 1
  27   14   15 1
  28   14   17 1
  29   14   39 1
  30   15   27 1
  31   15   16 1
  32   15   40 1
  33   16   41 1
  34   16   42 1
  35   17   18 ar
  36   17   22 ar
  37   18   19 ar
  38   18   43 1
  39   19   20 ar
  40   19   44 1
  41   20   21 ar
  42   20   45 1
  43   21   22 ar
  44   21   46 1
  45   22   47 1
  46   24   25 1
  47   25   26 1
  48   25   48 1
  49   25   49 1
  50   26   50 1
  51   26   51 1
  52   26   52 1
  53   27   28 1
  54   27   29 1
  55   27   30 1

#	End of record

