#	Name: ASD07480032
#	Creating user name:	WinNT
#	Creation time:	15. 06. 2019 21:11

#	Modifying user name:	WinNT
#	Modification time:	15. 06. 2019 21:11

#	Program:	/corina/corina34_cracker 3.40 0067  02.08.2006

@<TRIPOS>MOLECULE
ASD07480032
  58   63    0    0    0
SMALL
NO_CHARGES


@<TRIPOS>ATOM
   1 C1            -0.0170     1.4030     0.0098 C.2     
   2 C2             0.0021    -0.0041     0.0020 C.2     
   3 N3             1.1400    -0.6582    -0.0123 N.2     
   4 N4             2.3566     0.0310    -0.0202 N.pl3   
   5 C5             2.3719     1.3994    -0.0130 C.2     
   6 C6             1.1504     2.1004     0.0024 C.2     
   7 C7             3.6629    -0.3866    -0.0349 C.2     
   8 C8             4.4427     0.7523    -0.0362 C.2     
   9 N9             3.6367     1.8072    -0.0229 N.2     
  10 N10           -1.1977    -0.7092     0.0101 N.pl3   
  11 C11           -2.5454    -0.1118     0.0262 C.3     
  12 C12           -3.4560    -1.2038     0.6408 C.3     
  13 C13           -2.8397    -2.4961     0.0429 C.3     
  14 C14           -1.3312    -2.1733    -0.0023 C.3     
  15 C15           -0.7233    -2.7396    -1.2596 C.ar    
  16 C16           -0.0010    -3.9164    -1.2081 C.ar    
  17 C17            0.5575    -4.4366    -2.3636 C.ar    
  18 C18            0.3913    -3.7768    -3.5692 C.ar    
  19 C19           -0.3316    -2.5998    -3.6183 C.ar    
  20 C20           -0.8934    -2.0845    -2.4653 C.ar    
  21 F21            1.2643    -5.5869    -2.3143 F       
  22 C22            4.1416    -1.7820    -0.0469 C.ar    
  23 C23            3.2198    -2.8297    -0.0437 C.ar    
  24 C24            3.6807    -4.1353    -0.0556 C.ar    
  25 C25            5.0483    -4.3566    -0.0702 C.ar    
  26 C26            5.9158    -3.2687    -0.0727 C.ar    
  27 N27            5.4484    -2.0309    -0.0662 N.ar    
  28 N28            7.2887    -3.4847    -0.0873 N.3     
  29 C29            7.6785    -4.3168    -1.2335 C.3     
  30 C30            8.0231    -2.2094    -0.1129 C.3     
  31 C31            9.4984    -2.4861     0.1822 C.3     
  32 N32            9.9886    -3.5580    -0.6795 N.am    
  33 C33            9.1760    -4.4079    -1.3161 C.2     
  34 O34            9.6683    -5.2893    -1.9882 O.2     
  35 H35           -0.9599     1.9296     0.0171 H       
  36 H36            1.1410     3.1803     0.0086 H       
  37 H37            5.5222     0.7804    -0.0460 H       
  38 H38           -2.5557     0.7843     0.6467 H       
  39 H39           -2.8677     0.1244    -0.9880 H       
  40 H40           -3.3856    -1.2045     1.7286 H       
  41 H41           -4.4894    -1.0781     0.3178 H       
  42 H42           -3.0342    -3.3514     0.6901 H       
  43 H43           -3.2220    -2.6766    -0.9618 H       
  44 H44           -0.8358    -2.5932     0.8731 H       
  45 H45            0.1283    -4.4302    -0.2669 H       
  46 H46            0.8267    -4.1814    -4.4710 H       
  47 H47           -0.4614    -2.0848    -4.5588 H       
  48 H48           -1.4584    -1.1649    -2.5047 H       
  49 H49            2.1595    -2.6246    -0.0318 H       
  50 H50            2.9883    -4.9642    -0.0531 H       
  51 H51            5.4374    -5.3641    -0.0793 H       
  52 H52            7.2613    -5.3166    -1.1133 H       
  53 H53            7.2919    -3.8730    -2.1509 H       
  54 H54            7.9268    -1.7518    -1.0975 H       
  55 H55            7.6181    -1.5391     0.6453 H       
  56 H56           10.0793    -1.5818     0.0006 H       
  57 H57            9.6093    -2.7815     1.2255 H       
  58 H58           10.9465    -3.6577    -0.7957 H       
@<TRIPOS>BOND
   1    1    2 1
   2    1    6 2
   3    1   35 1
   4    2    3 2
   5    2   10 1
   6    3    4 1
   7    4    5 1
   8    4    7 1
   9    5    6 1
  10    5    9 2
  11    6   36 1
  12    7    8 2
  13    7   22 1
  14    8    9 1
  15    8   37 1
  16   10   11 1
  17   10   14 1
  18   11   12 1
  19   11   38 1
  20   11   39 1
  21   12   13 1
  22   12   40 1
  23   12   41 1
  24   13   14 1
  25   13   42 1
  26   13   43 1
  27   14   15 1
  28   14   44 1
  29   15   16 ar
  30   15   20 ar
  31   16   17 ar
  32   16   45 1
  33   17   18 ar
  34   17   21 1
  35   18   19 ar
  36   18   46 1
  37   19   20 ar
  38   19   47 1
  39   20   48 1
  40   22   23 ar
  41   22   27 ar
  42   23   24 ar
  43   23   49 1
  44   24   25 ar
  45   24   50 1
  46   25   26 ar
  47   25   51 1
  48   26   27 ar
  49   26   28 1
  50   28   29 1
  51   28   30 1
  52   29   33 1
  53   29   52 1
  54   29   53 1
  55   30   31 1
  56   30   54 1
  57   30   55 1
  58   31   32 1
  59   31   56 1
  60   31   57 1
  61   32   33 am
  62   32   58 1
  63   33   34 2

#	End of record

