#	Name: ASD05720107
#	Creating user name:	WinNT
#	Creation time:	15. 06. 2019 21:01

#	Modifying user name:	WinNT
#	Modification time:	15. 06. 2019 21:01

#	Program:	/corina/corina34_cracker 3.40 0067  02.08.2006

@<TRIPOS>MOLECULE
ASD05720107
  20   21    0    0    0
SMALL
NO_CHARGES


@<TRIPOS>ATOM
   1 O1            -0.0161     1.3335     0.0094 O.3     
   2 C2             0.0021    -0.0041     0.0020 C.2     
   3 N3             1.2348    -0.5293    -0.0126 N.am    
   4 C4             2.2183     0.5645    -0.0161 C.3     
   5 C5             1.3508     1.8380    -0.0010 C.3     
   6 O6            -1.0070    -0.6809     0.0087 O.2     
   7 S7             4.9683     0.3189    -2.8972 S.3     
   8 C8             3.3820     0.6125    -3.4636 C.2     
   9 N9             2.5601     0.6768    -2.4711 N.2     
  10 C10            3.0621     0.5136    -1.2636 C.2     
  11 C11            4.3810     0.2998    -1.2361 C.2     
  12 C12            2.9993     0.7730    -4.9123 C.3     
  13 H13            1.4444    -1.4764    -0.0197 H       
  14 H14            2.8457     0.5181     0.8740 H       
  15 H15            1.5314     2.4340    -0.8956 H       
  16 H16            1.5485     2.4243     0.8964 H       
  17 H17            4.9809     0.1430    -0.3518 H       
  18 H18            3.8875     0.6724    -5.5360 H       
  19 H19            2.2755     0.0047    -5.1841 H       
  20 H20            2.5580     1.7580    -5.0646 H       
@<TRIPOS>BOND
   1    1    2 1
   2    1    5 1
   3    2    3 am
   4    2    6 2
   5    3    4 1
   6    3   13 1
   7    4    5 1
   8    4   10 1
   9    4   14 1
  10    5   15 1
  11    5   16 1
  12    7    8 1
  13    7   11 1
  14    8    9 2
  15    8   12 1
  16    9   10 1
  17   10   11 2
  18   11   17 1
  19   12   18 1
  20   12   19 1
  21   12   20 1

#	End of record

