#	Name: ASD03331610
#	Creating user name:	WinNT
#	Creation time:	15. 06. 2019 20:39

#	Modifying user name:	WinNT
#	Modification time:	15. 06. 2019 20:39

#	Program:	/corina/corina34_cracker 3.40 0067  02.08.2006

@<TRIPOS>MOLECULE
ASD03331610
  69   71    0    0    0
SMALL
NO_CHARGES


@<TRIPOS>ATOM
   1 C1            -0.1511     0.9162     2.1146 C.ar    
   2 C2            -0.0396    -0.5075     1.7288 C.2     
   3 N3            -0.9515    -1.4795     1.9992 N.pl3   
   4 C4            -0.4840    -2.6395     1.4798 C.2     
   5 C5             0.7117    -2.3697     0.8964 C.2     
   6 N6             0.9556    -1.0485     1.0609 N.2     
   7 C7             1.5824    -3.3373     0.2057 C.2     
   8 N8             2.7497    -2.9300    -0.3309 N.am    
   9 C9            -2.2316    -1.3488     2.7230 C.3     
  10 C10           -2.1113    -2.1965     3.9999 C.3     
  11 C11           -2.3274    -3.6592     3.6977 C.3     
  12 N12           -1.2664    -4.3418     2.9880 N.3     
  13 C13           -1.2055    -3.9721     1.5609 C.3     
  14 C14           -0.8342     1.2748     3.2770 C.ar    
  15 O15            1.2477    -4.5034     0.1200 O.2     
  16 C16            3.6154    -3.8920    -1.0176 C.3     
  17 C17           -1.3763    -5.7977     3.1504 C.3     
  18 C18           -2.5534    -4.3874     5.0241 C.3     
  19 C19            3.1651    -4.0352    -2.4728 C.3     
  20 C20            5.0402    -3.4027    -0.9785 C.2     
  21 C21            3.2111    -2.6679    -3.1578 C.3     
  22 C22            4.0987    -5.0029    -3.2026 C.3     
  23 C23            1.7352    -4.5780    -2.5131 C.3     
  24 C24           -0.9353     2.6057     3.6324 C.ar    
  25 C25           -0.3589     3.5841     2.8347 C.ar    
  26 C26            0.3197     3.2313     1.6796 C.ar    
  27 C27            0.4317     1.9043     1.3201 C.ar    
  28 F28           -0.4603     4.8849     3.1854 F       
  29 F29           -1.5964     2.9554     4.7575 F       
  30 O30            5.2740    -2.2331    -0.7585 O.2     
  31 N31            6.0548    -4.2648    -1.1879 N.am    
  32 C32            7.4412    -3.8125    -1.0477 C.3     
  33 C33            8.3365    -5.0080    -0.7160 C.3     
  34 C34            7.9051    -3.1763    -2.3595 C.3     
  35 H35            3.0167    -2.0000    -0.2625 H       
  36 H36           -2.4067    -0.3052     2.9841 H       
  37 H37           -3.0485    -1.7211     2.1047 H       
  38 H38           -1.1175    -2.0618     4.4270 H       
  39 H39           -2.8583    -1.8655     4.7214 H       
  40 H40           -3.2396    -3.7499     3.1080 H       
  41 H41           -2.2138    -3.8741     1.1585 H       
  42 H42           -0.6533    -4.7288     1.0037 H       
  43 H43           -1.2834     0.5134     3.8974 H       
  44 H44            3.5497    -4.8596    -0.5200 H       
  45 H45           -2.3740    -6.1220     2.8546 H       
  46 H46           -0.6333    -6.2903     2.5232 H       
  47 H47           -1.2031    -6.0609     4.1939 H       
  48 H48           -3.3479    -3.8904     5.5807 H       
  49 H49           -2.8393    -5.4207     4.8272 H       
  50 H50           -1.6341    -4.3700     5.6095 H       
  51 H51            4.2298    -2.2812    -3.1291 H       
  52 H52            2.8903    -2.7699    -4.1945 H       
  53 H53            2.5460    -1.9784    -2.6378 H       
  54 H54            4.0369    -5.9872    -2.7383 H       
  55 H55            3.8012    -5.0754    -4.2487 H       
  56 H56            5.1231    -4.6357    -3.1409 H       
  57 H57            1.0701    -3.8885    -1.9931 H       
  58 H58            1.4144    -4.6800    -3.5498 H       
  59 H59            1.7024    -5.5521    -2.0250 H       
  60 H60            0.7660     3.9964     1.0617 H       
  61 H61            0.9611     1.6312     0.4193 H       
  62 H62            5.8670    -5.1848    -1.4315 H       
  63 H63            7.5042    -3.0777    -0.2452 H       
  64 H64            8.2735    -5.7429    -1.5186 H       
  65 H65            9.3680    -4.6715    -0.6117 H       
  66 H66            8.0060    -5.4613     0.2185 H       
  67 H67            7.8421    -3.9111    -3.1620 H       
  68 H68            7.2673    -2.3246    -2.5958 H       
  69 H69            8.9366    -2.8397    -2.2552 H       
@<TRIPOS>BOND
   1    1    2 1
   2    1   14 ar
   3    1   27 ar
   4    2    3 1
   5    2    6 2
   6    3    4 1
   7    3    9 1
   8    4    5 2
   9    4   13 1
  10    5    6 1
  11    5    7 1
  12    7    8 am
  13    7   15 2
  14    8   16 1
  15    8   35 1
  16    9   10 1
  17    9   36 1
  18    9   37 1
  19   10   11 1
  20   10   38 1
  21   10   39 1
  22   11   12 1
  23   11   18 1
  24   11   40 1
  25   12   13 1
  26   12   17 1
  27   13   41 1
  28   13   42 1
  29   14   24 ar
  30   14   43 1
  31   16   19 1
  32   16   20 1
  33   16   44 1
  34   17   45 1
  35   17   46 1
  36   17   47 1
  37   18   48 1
  38   18   49 1
  39   18   50 1
  40   19   21 1
  41   19   22 1
  42   19   23 1
  43   20   30 2
  44   20   31 am
  45   21   51 1
  46   21   52 1
  47   21   53 1
  48   22   54 1
  49   22   55 1
  50   22   56 1
  51   23   57 1
  52   23   58 1
  53   23   59 1
  54   24   25 ar
  55   24   29 1
  56   25   26 ar
  57   25   28 1
  58   26   27 ar
  59   26   60 1
  60   27   61 1
  61   31   32 1
  62   31   62 1
  63   32   33 1
  64   32   34 1
  65   32   63 1
  66   33   64 1
  67   33   65 1
  68   33   66 1
  69   34   67 1
  70   34   68 1
  71   34   69 1

#	End of record

