#	Name: ASD01870325
#	Creating user name:	WinNT
#	Creation time:	15. 06. 2019 19:39

#	Modifying user name:	WinNT
#	Modification time:	15. 06. 2019 19:39

#	Program:	/corina/corina34_cracker 3.40 0067  02.08.2006

@<TRIPOS>MOLECULE
ASD01870325
  52   54    0    0    0
SMALL
NO_CHARGES


@<TRIPOS>ATOM
   1 C1            -0.0127     1.3564    -0.5713 C.ar    
   2 C2             0.0053    -0.0205    -0.4667 C.ar    
   3 C3             1.1755     2.0667    -0.5973 C.ar    
   4 C4             2.3869     1.4029    -0.5188 C.ar    
   5 C5             2.4183     0.0278    -0.4140 C.ar    
   6 C6             1.2243    -0.6950    -0.3872 C.ar    
   7 C7             1.2513    -2.1689    -0.2751 C.2     
   8 N8             0.0969    -2.8640    -0.2494 N.am    
   9 C9             0.1235    -4.3246    -0.1383 C.3     
  10 C10           -1.3090    -4.8617    -0.1311 C.3     
  11 O11            2.3146    -2.7539    -0.2060 O.2     
  12 C12           -2.6435    -6.8784    -0.0096 C.3     
  13 C13           -2.5836    -8.3865    -0.2693 C.3     
  14 C14           -3.2903    -6.6149     1.3533 C.3     
  15 C15           -2.5371    -7.4188     2.4251 C.3     
  16 C16           -1.0234    -7.1817     2.2180 C.3     
  17 C17           -0.5879    -8.2734     1.2181 C.3     
  18 C18           -1.8794    -9.0675     0.9150 C.3     
  19 N19           -2.7278    -8.8559     2.1127 N.am    
  20 C20           -3.4913    -9.7562     2.7631 C.2     
  21 O21           -4.2017    -9.3810     3.8435 O.3     
  22 O22           -3.5385   -10.9065     2.3744 O.2     
  23 C23           -5.0017   -10.4033     4.4940 C.3     
  24 C24           -5.7320    -9.7938     5.6923 C.3     
  25 N25           -1.2823    -6.3263    -0.0196 N.3     
  26 Cl26          -1.5275     2.1976    -0.6775 Cl      
  27 H27           -0.9219    -0.5740    -0.4461 H       
  28 H28            1.1566     3.1434    -0.6796 H       
  29 H29            3.3103     1.9628    -0.5400 H       
  30 H30            3.3648    -0.4886    -0.3532 H       
  31 H31           -0.7517    -2.3972    -0.3045 H       
  32 H32            0.6645    -4.7437    -0.9867 H       
  33 H33            0.6231    -4.6094     0.7877 H       
  34 H34           -1.8500    -4.4426     0.7174 H       
  35 H35           -1.8085    -4.5769    -1.0571 H       
  36 H36           -3.2343    -6.3992    -0.7902 H       
  37 H37           -3.5951    -8.7804    -0.3682 H       
  38 H38           -2.0245    -8.5773    -1.1853 H       
  39 H39           -3.2314    -5.5516     1.5859 H       
  40 H40           -4.3342    -6.9277     1.3287 H       
  41 H41           -2.8600    -7.1608     3.4337 H       
  42 H42           -0.8482    -6.1910     1.7986 H       
  43 H43           -0.4888    -7.2956     3.1611 H       
  44 H44           -0.1984    -7.8198     0.3067 H       
  45 H45            0.1610    -8.9244     1.6692 H       
  46 H46           -1.6789   -10.1214     0.7221 H       
  47 H47           -5.7309   -10.7987     3.7869 H       
  48 H48           -4.3527   -11.2097     4.8358 H       
  49 H49           -6.3325   -10.5612     6.1807 H       
  50 H50           -5.0028    -9.3983     6.3995 H       
  51 H51           -6.3809    -8.9874     5.3506 H       
  52 H52           -0.7316    -6.7352    -0.7596 H       
@<TRIPOS>BOND
   1    1    2 ar
   2    1    3 ar
   3    1   26 1
   4    2    6 ar
   5    2   27 1
   6    3    4 ar
   7    3   28 1
   8    4    5 ar
   9    4   29 1
  10    5    6 ar
  11    5   30 1
  12    6    7 1
  13    7    8 am
  14    7   11 2
  15    8    9 1
  16    8   31 1
  17    9   10 1
  18    9   32 1
  19    9   33 1
  20   10   25 1
  21   10   34 1
  22   10   35 1
  23   12   13 1
  24   12   14 1
  25   12   25 1
  26   12   36 1
  27   13   18 1
  28   13   37 1
  29   13   38 1
  30   14   15 1
  31   14   39 1
  32   14   40 1
  33   15   16 1
  34   15   19 1
  35   15   41 1
  36   16   17 1
  37   16   42 1
  38   16   43 1
  39   17   18 1
  40   17   44 1
  41   17   45 1
  42   18   19 1
  43   18   46 1
  44   19   20 am
  45   20   21 1
  46   20   22 2
  47   21   23 1
  48   23   24 1
  49   23   47 1
  50   23   48 1
  51   24   49 1
  52   24   50 1
  53   24   51 1
  54   25   52 1

#	End of record

