#	Name: ASD01350039
#	Creating user name:	WinNT
#	Creation time:	15. 06. 2019 19:16

#	Modifying user name:	WinNT
#	Modification time:	15. 06. 2019 19:16

#	Program:	/corina/corina34_cracker 3.40 0067  02.08.2006

@<TRIPOS>MOLECULE
ASD01350039
  34   36    0    0    0
SMALL
NO_CHARGES


@<TRIPOS>ATOM
   1 C1            -0.0167     1.3779     0.0096 C.ar    
   2 C2             0.0021    -0.0041     0.0020 C.ar    
   3 C3             1.2084    -0.6771    -0.0131 C.ar    
   4 C4             2.3998     0.0283    -0.0202 C.ar    
   5 C5             2.3810     1.4107    -0.0126 C.ar    
   6 C6             1.1710     2.0835     0.0021 C.ar    
   7 C7             3.8311    -0.4638    -0.0359 C.3     
   8 C8             4.6718     0.7530    -0.4773 C.3     
   9 C9             3.7985     1.9416    -0.0226 C.3     
  10 C10            6.0246     0.7675     0.2374 C.3     
  11 C11            6.8457    -0.4114    -0.2177 C.ar    
  12 C12            7.6827    -0.2898    -1.3112 C.ar    
  13 C13            8.4359    -1.3712    -1.7287 C.ar    
  14 C14            8.3525    -2.5739    -1.0524 C.ar    
  15 C15            7.5162    -2.6952     0.0416 C.ar    
  16 C16            6.7663    -1.6126     0.4617 C.ar    
  17 N17            3.9189     3.0554    -0.9729 N.3     
  18 H18           -0.9589     1.9056     0.0170 H       
  19 H19           -0.9255    -0.5573     0.0083 H       
  20 H20            1.2222    -1.7570    -0.0191 H       
  21 H21            1.1556     3.1633     0.0076 H       
  22 H22            4.1303    -0.7888     0.9606 H       
  23 H23            3.9428    -1.2797    -0.7500 H       
  24 H24            4.8039     0.7608    -1.5592 H       
  25 H25            4.0889     2.2636     0.9774 H       
  26 H26            6.5517     1.6912    -0.0012 H       
  27 H27            5.8673     0.7066     1.3143 H       
  28 H28            7.7478     0.6498    -1.8395 H       
  29 H29            9.0892    -1.2764    -2.5834 H       
  30 H30            8.9404    -3.4190    -1.3790 H       
  31 H31            7.4508    -3.6350     0.5697 H       
  32 H32            6.1129    -1.7074     1.3164 H       
  33 H33            3.3517     3.8388    -0.6855 H       
  34 H34            4.8830     3.3300    -1.0879 H       
@<TRIPOS>BOND
   1    1    2 ar
   2    1    6 ar
   3    1   18 1
   4    2    3 ar
   5    2   19 1
   6    3    4 ar
   7    3   20 1
   8    4    5 ar
   9    4    7 1
  10    5    6 ar
  11    5    9 1
  12    6   21 1
  13    7    8 1
  14    7   22 1
  15    7   23 1
  16    8    9 1
  17    8   10 1
  18    8   24 1
  19    9   17 1
  20    9   25 1
  21   10   11 1
  22   10   26 1
  23   10   27 1
  24   11   12 ar
  25   11   16 ar
  26   12   13 ar
  27   12   28 1
  28   13   14 ar
  29   13   29 1
  30   14   15 ar
  31   14   30 1
  32   15   16 ar
  33   15   31 1
  34   16   32 1
  35   17   33 1
  36   17   34 1

#	End of record

