#	Name: ASD06590078
#	Creating user name:	WinNT
#	Creation time:	15. 06. 2019 21:06

#	Modifying user name:	WinNT
#	Modification time:	15. 06. 2019 21:06

#	Program:	/corina/corina34_cracker 3.40 0067  02.08.2006

@<TRIPOS>MOLECULE
ASD06590078
 347  348    0    0    0
SMALL
NO_CHARGES


@<TRIPOS>ATOM
   1 C1            -3.3562    14.8577    -3.7779 C.2     
   2 O2            -3.1424    14.8557    -4.9717 O.2     
   3 N3            -1.1993    15.9517    -3.5771 N.am    
   4 C4            -2.4055    15.5606    -2.8434 C.3     
   5 C5            -3.0816    16.8082    -2.2714 C.3     
   6 C6            -2.1233    17.5113    -1.3081 C.3     
   7 O7            -3.4221    17.6966    -3.3377 O.3     
   8 C8            -6.8126    14.1476    -3.8211 C.2     
   9 O9            -6.9517    14.8967    -2.8774 O.2     
  10 N10           -4.4469    14.2362    -3.2876 N.am    
  11 C11           -5.4374    13.6639    -4.2028 C.3     
  12 C12           -5.3910    12.1372    -4.1147 C.3     
  13 C13           -4.0300    11.6505    -4.5410 C.2     
  14 O14           -3.1687    12.4482    -4.8457 O.2     
  15 N15           -3.7698    10.3287    -4.5836 N.am    
  16 C16          -10.2560    13.2275    -4.6334 C.2     
  17 O17           -9.9083    12.2272    -5.2245 O.2     
  18 N18           -7.8880    13.7479    -4.5284 N.am    
  19 C19           -9.2249    14.2181    -4.1572 C.3     
  20 C20           -9.4859    15.5782    -4.8076 C.3     
  21 C21          -13.9420    12.9738    -4.4834 C.2     
  22 O22          -14.0721    14.0200    -3.8838 O.2     
  23 N23          -11.5645    13.4531    -4.4023 N.am    
  24 C24          -12.5668    12.4901    -4.8652 C.3     
  25 C25          -17.3002    11.5374    -4.3349 C.2     
  26 O26          -16.8908    10.4164    -4.5508 O.2     
  27 N27          -15.0274    12.2439    -4.8084 N.am    
  28 C28          -16.3643    12.7141    -4.4373 C.3     
  29 C29          -16.8783    13.6833    -5.5037 C.3     
  30 C30          -15.9992    14.9354    -5.5211 C.3     
  31 C31          -16.5132    15.9047    -6.5876 C.3     
  32 N32          -15.6715    17.1036    -6.6042 N.pl3   
  33 C33          -15.9426    18.1217    -7.4875 C.2     
  34 N34          -15.1937    19.1884    -7.5023 N.2     
  35 N35          -17.0037    18.0146    -8.3551 N.pl3   
  36 C36          -20.9176    11.0493    -4.1357 C.2     
  37 O37          -21.1441    12.2191    -4.3616 O.2     
  38 N38          -18.5923    11.7308    -4.0036 N.am    
  39 C39          -19.5021    10.5869    -3.9041 C.3     
  40 C40          -19.3900     9.9658    -2.5104 C.3     
  41 O41          -19.8509    10.9015    -1.5335 O.3     
  42 C42          -23.9753    11.1049    -3.1832 C.2     
  43 O43          -23.3828    11.1140    -2.1250 O.2     
  44 N44          -21.9318    10.1627    -4.0918 N.am    
  45 C45          -23.2931    10.5900    -4.4244 C.3     
  46 C46          -24.0786     9.4016    -4.9824 C.3     
  47 C47          -23.4628     8.9593    -6.2848 C.2     
  48 O48          -22.5601     9.5967    -6.7735 O.2     
  49 O49          -23.9170     7.8572    -6.9019 O.3     
  50 C50          -27.3999    11.9173    -2.1957 C.2     
  51 O51          -27.8740    11.6188    -3.2714 O.2     
  52 N52          -25.2439    11.5552    -3.2491 N.am    
  53 C53          -25.9071    12.0557    -2.0425 C.3     
  54 C54          -25.5499    13.5293    -1.8382 C.3     
  55 C55          -24.0323    13.6727    -1.7067 C.3     
  56 O56          -26.0048    14.2896    -2.9595 O.3     
  57 C57          -30.3834    12.7231    -0.2431 C.2     
  58 O58          -29.7651    13.4495     0.5059 O.2     
  59 N59          -28.2081    12.1251    -1.1374 N.am    
  60 C60          -29.6483    11.8850    -1.2572 C.3     
  61 C61          -29.9413    10.4048    -1.0041 C.3     
  62 C62          -29.2973     9.5617    -2.1066 C.3     
  63 C63          -29.5904     8.0815    -1.8535 C.3     
  64 N64          -28.9737     7.2742    -2.9091 N.pl3   
  65 C65          -29.1035     5.9056    -2.8922 C.2     
  66 N66          -28.5548     5.1874    -3.8314 N.2     
  67 N67          -29.8119     5.2947    -1.8848 N.pl3   
  68 C68          -33.7668    12.8359     1.1363 C.2     
  69 O69          -34.0827    11.7982     0.5937 O.2     
  70 N70          -31.7278    12.6655    -0.1686 N.am    
  71 C71          -32.4424    13.4803     0.8172 C.3     
  72 C72          -32.6805    14.8795     0.2460 C.3     
  73 C73          -31.3368    15.5812     0.0386 C.3     
  74 C74          -31.5714    16.9594    -0.5240 C.2     
  75 O75          -32.7020    17.3427    -0.7380 O.2     
  76 N76          -30.5248    17.7661    -0.7893 N.am    
  77 C77          -36.8535    13.8365     2.8197 C.2     
  78 O78          -36.5011    14.9944     2.8984 O.2     
  79 N79          -34.6002    13.4127     2.0246 N.am    
  80 C80          -35.8877    12.7862     2.3348 C.3     
  81 C81          -35.6919    11.7311     3.4253 C.3     
  82 C82          -34.8106    10.6011     2.8893 C.3     
  83 C83          -34.6178     9.5618     3.9634 C.2     
  84 O84          -35.1343     9.7103     5.0506 O.2     
  85 N85          -33.8713     8.4673     3.7158 N.am    
  86 C86          -40.0966    13.8654     4.5062 C.2     
  87 O87          -40.0632    12.6705     4.7116 O.2     
  88 N88          -38.1089    13.4892     3.1659 N.am    
  89 C89          -39.0478    14.5103     3.6373 C.3     
  90 C90          -39.7206    15.1779     2.4362 C.3     
  91 C91          -38.6876    15.9262     1.6337 C.ar    
  92 C92          -38.0145    15.2875     0.6086 C.ar    
  93 C93          -37.0668    15.9712    -0.1283 C.ar    
  94 C94          -36.7911    17.2998     0.1607 C.ar    
  95 O95          -35.8596    17.9746    -0.5631 O.3     
  96 C96          -37.4682    17.9384     1.1894 C.ar    
  97 C97          -38.4187    17.2519     1.9200 C.ar    
  98 C98          -43.3432    14.8285     5.8830 C.2     
  99 O99          -43.3799    15.8496     5.2295 O.2     
 100 N100         -41.0718    14.6164     5.0552 N.am    
 101 C101         -42.0915    13.9895     5.8999 C.3     
 102 C102         -41.5695    13.8812     7.3341 C.3     
 103 C103         -40.3723    12.9292     7.3706 C.3     
 104 C104         -39.8504    12.8209     8.8047 C.3     
 105 N105         -38.7041    11.9093     8.8397 N.pl3   
 106 C106         -38.0647    11.6542    10.0297 C.2     
 107 N107         -37.0449    10.8431    10.0608 N.2     
 108 N108         -38.5012    12.2545    11.1870 N.pl3   
 109 C109         -46.4269    15.0116     7.8375 C.2     
 110 O110         -46.0130    14.2303     8.6677 O.2     
 111 N111         -44.4218    14.4442     6.5939 N.am    
 112 C112         -45.6386    15.2598     6.5773 C.3     
 113 C113         -46.4883    14.8836     5.3618 C.3     
 114 C114         -45.7369    15.2516     4.0808 C.3     
 115 C115         -46.5866    14.8754     2.8653 C.3     
 116 C116         -45.8353    15.2433     1.5843 C.3     
 117 N117         -46.6511    14.8821     0.4172 N.3     
 118 C118         -49.8125    15.7231     9.0184 C.2     
 119 O119         -50.1734    16.1055     7.9255 O.2     
 120 N120         -47.5918    15.6578     8.0420 N.am    
 121 C121         -48.3581    15.4165     9.2670 C.3     
 122 C122         -47.8306    16.3186    10.3846 C.3     
 123 C123         -46.3917    15.9233    10.7227 C.3     
 124 C124         -45.8219    16.9028    11.7506 C.3     
 125 C125         -46.3747    14.5077    11.3031 C.3     
 126 C126         -52.8304    16.2271    10.9972 C.2     
 127 O127         -52.3101    16.0453    12.0776 O.2     
 128 N128         -50.7122    15.5723    10.0105 N.am    
 129 C129         -52.1393    15.7640     9.7406 C.3     
 130 C130         -52.7532    14.4409     9.2788 C.3     
 131 C131         -54.1957    14.6781     8.8273 C.3     
 132 C132         -54.2008    15.5694     7.5837 C.3     
 133 C133         -54.8536    13.3370     8.4963 C.3     
 134 C134         -55.5504    16.0131    12.6170 C.2     
 135 O135         -55.5228    14.9743    11.9917 O.2     
 136 N136         -54.0266    16.8431    10.9204 N.am    
 137 C137         -54.7477    17.1981    12.1453 C.3     
 138 C138         -55.6884    18.3709    11.8616 C.3     
 139 C139         -54.8776    19.5911    11.5085 C.ar    
 140 C140         -54.5432    19.8411    10.1907 C.ar    
 141 C141         -53.7994    20.9604     9.8667 C.ar    
 142 C142         -53.3904    21.8299    10.8605 C.ar    
 143 C143         -53.7256    21.5803    12.1782 C.ar    
 144 C144         -54.4731    20.4634    12.5016 C.ar    
 145 C145         -58.2434    15.4351    15.0204 C.2     
 146 O146         -58.4049    16.6177    15.2082 O.2     
 147 N147         -56.2988    16.1076    13.7339 N.am    
 148 C148         -57.0791    14.9557    14.1925 C.3     
 149 C149         -56.1911    14.0435    15.0411 C.3     
 150 O150         -55.7994    14.7322    16.2303 O.3     
 151 O151         -59.1012    14.5483    15.5493 O.3     
 152 C152          -0.0358    16.1226    -2.9187 C.2     
 153 O153           0.0127    15.9526    -1.7189 O.2     
 154 C154          18.2282    20.2596    -2.2101 C.3     
 155 C155          16.9685    19.8511    -1.4439 C.3     
 156 C156          15.7963    19.7261    -2.4192 C.3     
 157 C157          14.5366    19.3176    -1.6529 C.3     
 158 C158          13.3644    19.1926    -2.6282 C.3     
 159 C159          12.1047    18.7841    -1.8620 C.3     
 160 C160          10.9325    18.6591    -2.8373 C.3     
 161 C161           9.6728    18.2506    -2.0710 C.3     
 162 C162           8.5006    18.1255    -3.0463 C.3     
 163 C163           7.2409    17.7170    -2.2801 C.3     
 164 C164           6.0688    17.5920    -3.2554 C.3     
 165 C165           4.8091    17.1835    -2.4891 C.3     
 166 C166           3.6369    17.0585    -3.4644 C.3     
 167 C167           2.3772    16.6500    -2.6982 C.3     
 168 C168           1.2050    16.5250    -3.6735 C.3     
 169 H169          -1.2381    16.0877    -4.5367 H       
 170 H170          -2.1336    14.8890    -2.0290 H       
 171 H171          -3.9864    16.5185    -1.7370 H       
 172 H172          -1.2669    17.8947    -1.8628 H       
 173 H173          -2.6399    18.3380    -0.8204 H       
 174 H174          -1.7803    16.8022    -0.5547 H       
 175 H175          -4.0283    17.3163    -3.9881 H       
 176 H176          -4.5761    14.1678    -2.3286 H       
 177 H177          -5.2126    13.9760    -5.2227 H       
 178 H178          -5.5827    11.8266    -3.0876 H       
 179 H179          -6.1508    11.7121    -4.7706 H       
 180 H180          -4.4587     9.6907    -4.3398 H       
 181 H181          -2.8938    10.0155    -4.8579 H       
 182 H182          -7.7767    13.1488    -5.2831 H       
 183 H183          -9.2880    14.3155    -3.0734 H       
 184 H184          -9.4229    15.4808    -5.8914 H       
 185 H185         -10.4807    15.9280    -4.5315 H       
 186 H186          -8.7402    16.2947    -4.4632 H       
 187 H187         -11.8426    14.2532    -3.9295 H       
 188 H188         -12.3808    11.5212    -4.4018 H       
 189 H189         -12.5037    12.3927    -5.9490 H       
 190 H190         -14.9233    11.4072    -5.2880 H       
 191 H191         -16.3159    13.2246    -3.4754 H       
 192 H192         -16.8429    13.2009    -6.4805 H       
 193 H193         -17.9062    13.9642    -5.2743 H       
 194 H194         -16.0347    15.4179    -4.5443 H       
 195 H195         -14.9713    14.6546    -5.7505 H       
 196 H196         -16.4778    15.4223    -7.5643 H       
 197 H197         -17.5411    16.1856    -6.3581 H       
 198 H198         -14.9228    17.1791    -5.9921 H       
 199 H199         -15.3850    19.9066    -8.1255 H       
 200 H200         -17.5610    17.2208    -8.3441 H       
 201 H201         -17.1950    18.7329    -8.9783 H       
 202 H202         -18.9197    12.6274    -3.8310 H       
 203 H203         -19.2350     9.8438    -4.6556 H       
 204 H204         -19.9994     9.0632    -2.4647 H       
 205 H205         -18.3494     9.7123    -2.3081 H       
 206 H206         -19.8084    10.5741    -0.6246 H       
 207 H207         -21.7604     9.2418    -3.8400 H       
 208 H208         -23.2528    11.3822    -5.1720 H       
 209 H209         -24.0485     8.5786    -4.2683 H       
 210 H210         -25.1138     9.6977    -5.1521 H       
 211 H211         -23.4906     7.6132    -7.7349 H       
 212 H212         -25.7178    11.5479    -4.0954 H       
 213 H213         -25.5753    11.4784    -1.1795 H       
 214 H214         -26.0296    13.8971    -0.9312 H       
 215 H215         -23.5587    13.4031    -2.6507 H       
 216 H216         -23.7851    14.7047    -1.4579 H       
 217 H217         -23.6720    13.0124    -0.9178 H       
 218 H218         -26.9599    14.2449    -3.1036 H       
 219 H219         -27.8362    12.4337    -0.2963 H       
 220 H220         -29.9794    12.1547    -2.2600 H       
 221 H221         -29.5311    10.1133    -0.0373 H       
 222 H222         -31.0192    10.2425    -1.0053 H       
 223 H223         -29.7076     9.8532    -3.0734 H       
 224 H224         -28.2195     9.7241    -2.1054 H       
 225 H225         -29.1801     7.7900    -0.8867 H       
 226 H226         -30.6682     7.9191    -1.8547 H       
 227 H227         -28.4739     7.7053    -3.6199 H       
 228 H228         -28.6464     4.2218    -3.8195 H       
 229 H229         -30.2202     5.8292    -1.1859 H       
 230 H230         -29.9034     4.3291    -1.8729 H       
 231 H231         -32.2223    12.0846    -0.7677 H       
 232 H232         -31.8465    13.5557     1.7268 H       
 233 H233         -33.1994    14.7986    -0.7092 H       
 234 H234         -33.2886    15.4574     0.9420 H       
 235 H235         -30.8179    15.6621     0.9937 H       
 236 H236         -30.7288    15.0033    -0.6574 H       
 237 H237         -29.6205    17.4595    -0.6182 H       
 238 H238         -30.6757    18.6532    -1.1515 H       
 239 H239         -34.3476    14.2426     2.4586 H       
 240 H240         -36.2865    12.3122     1.4380 H       
 241 H241         -35.2110    12.1876     4.2905 H       
 242 H242         -36.6610    11.3279     3.7190 H       
 243 H243         -35.2915    10.1445     2.0241 H       
 244 H244         -33.8415    11.0043     2.5956 H       
 245 H245         -33.4582     8.3485     2.8462 H       
 246 H246         -33.7471     7.7983     4.4072 H       
 247 H247         -38.3907    12.5632     3.1029 H       
 248 H248         -38.5084    15.2608     4.2152 H       
 249 H249         -40.1851    14.4161     1.8102 H       
 250 H250         -40.4824    15.8740     2.7871 H       
 251 H251         -38.2295    14.2533     0.3840 H       
 252 H252         -36.5408    15.4717    -0.9284 H       
 253 H253         -36.2161    18.4237    -1.3417 H       
 254 H254         -37.2551    18.9725     1.4166 H       
 255 H255         -38.9492    17.7499     2.7180 H       
 256 H256         -41.0986    15.5720     4.8910 H       
 257 H257         -42.3166    12.9933     5.5191 H       
 258 H258         -41.2610    14.8664     7.6838 H       
 259 H259         -42.3590    13.4971     7.9800 H       
 260 H260         -40.6808    11.9440     7.0208 H       
 261 H261         -39.5828    13.3133     6.7246 H       
 262 H262         -39.5419    13.8061     9.1544 H       
 263 H263         -40.6399    12.4368     9.4507 H       
 264 H264         -38.3961    11.4858     8.0231 H       
 265 H265         -36.5938    10.6631    10.9005 H       
 266 H266         -39.2601    12.8581    11.1639 H       
 267 H267         -38.0501    12.0745    12.0267 H       
 268 H268         -44.3924    13.6275     7.1164 H       
 269 H269         -45.3685    16.3143     6.5195 H       
 270 H270         -46.6839    13.8114     5.3731 H       
 271 H271         -47.4332    15.4258     5.3973 H       
 272 H272         -45.5413    16.3238     4.0695 H       
 273 H273         -44.7920    14.7094     4.0454 H       
 274 H274         -46.7822    13.8031     2.8766 H       
 275 H275         -47.5316    15.4175     2.9007 H       
 276 H276         -45.6397    16.3155     1.5730 H       
 277 H277         -44.8903    14.7012     1.5488 H       
 278 H278         -46.1763    15.1153    -0.4420 H       
 279 H279         -46.9003    13.9046     0.4388 H       
 280 H280         -47.9228    16.2827     7.3780 H       
 281 H281         -48.2521    14.3726     9.5622 H       
 282 H282         -47.8541    17.3572    10.0547 H       
 283 H283         -48.4564    16.2042    11.2697 H       
 284 H284         -45.7848    15.9522     9.8178 H       
 285 H285         -46.4288    16.8739    12.6555 H       
 286 H286         -44.7968    16.6212    11.9915 H       
 287 H287         -45.8340    17.9113    11.3371 H       
 288 H288         -46.9817    14.4788    12.2080 H       
 289 H289         -46.7807    13.8099    10.5708 H       
 290 H290         -45.3497    14.2261    11.5440 H       
 291 H291         -50.4148    15.3368    10.9033 H       
 292 H292         -52.2638    16.5144     8.9599 H       
 293 H293         -52.1730    14.0419     8.4468 H       
 294 H294         -52.7432    13.7283    10.1036 H       
 295 H295         -54.7511    15.1676     9.6273 H       
 296 H296         -55.2294    15.7954     7.3028 H       
 297 H297         -53.6709    16.4971     7.7994 H       
 298 H298         -53.7056    15.0506     6.7628 H       
 299 H299         -54.8500    12.7021     9.3822 H       
 300 H300         -55.8812    13.5060     8.1745 H       
 301 H301         -54.2982    12.8475     7.6962 H       
 302 H302         -54.4102    17.0514    10.0542 H       
 303 H303         -54.0335    17.4838    12.9175 H       
 304 H304         -56.3446    18.1172    11.0290 H       
 305 H305         -56.2888    18.5776    12.7475 H       
 306 H306         -54.8627    19.1618     9.4142 H       
 307 H307         -53.5376    21.1553     8.8372 H       
 308 H308         -52.8087    22.7040    10.6075 H       
 309 H309         -53.4058    22.2595    12.9547 H       
 310 H310         -54.7381    20.2704    13.5307 H       
 311 H311         -56.3209    16.9385    14.2340 H       
 312 H312         -57.4502    14.4017    13.3302 H       
 313 H313         -56.7450    13.1435    15.3083 H       
 314 H314         -55.3035    13.7682    14.4715 H       
 315 H315         -55.2333    14.2126    16.8174 H       
 316 H316         -59.8325    14.9035    16.0729 H       
 317 H317          18.0600    21.2183    -2.7009 H       
 318 H318          19.0633    20.3487    -1.5153 H       
 319 H319          18.4586    19.5030    -2.9601 H       
 320 H320          17.1366    18.8925    -0.9531 H       
 321 H321          16.7380    20.6078    -0.6939 H       
 322 H322          15.6282    20.6847    -2.9100 H       
 323 H323          16.0268    18.9694    -3.1691 H       
 324 H324          14.7047    18.3590    -1.1621 H       
 325 H325          14.3061    20.0743    -0.9029 H       
 326 H326          13.1963    20.1512    -3.1190 H       
 327 H327          13.5949    18.4359    -3.3782 H       
 328 H328          12.2728    17.8254    -1.3712 H       
 329 H329          11.8742    19.5407    -1.1120 H       
 330 H330          10.7644    19.6177    -3.3281 H       
 331 H331          11.1630    17.9024    -3.5872 H       
 332 H332           9.8409    17.2919    -1.5802 H       
 333 H333           9.4423    19.0072    -1.3210 H       
 334 H334           8.3325    19.0842    -3.5371 H       
 335 H335           8.7311    17.3689    -3.7963 H       
 336 H336           7.4091    16.7584    -1.7893 H       
 337 H337           7.0105    18.4737    -1.5301 H       
 338 H338           5.9006    18.5506    -3.7462 H       
 339 H339           6.2992    16.8354    -4.0054 H       
 340 H340           4.9772    16.2249    -1.9983 H       
 341 H341           4.5786    17.9402    -1.7392 H       
 342 H342           3.4688    18.0171    -3.9552 H       
 343 H343           3.8673    16.3018    -4.2144 H       
 344 H344           2.5453    15.6914    -2.2074 H       
 345 H345           2.1467    17.4066    -1.9482 H       
 346 H346           1.4355    15.7683    -4.4235 H       
 347 H347           1.0369    17.4836    -4.1643 H       
@<TRIPOS>BOND
   1    1    2 2
   2    1    4 1
   3    1   10 am
   4    3  152 am
   5    3    4 1
   6    3  169 1
   7    4    5 1
   8    4  170 1
   9    5    6 1
  10    5    7 1
  11    5  171 1
  12    6  172 1
  13    6  173 1
  14    6  174 1
  15    7  175 1
  16    8    9 2
  17    8   11 1
  18    8   18 am
  19   10   11 1
  20   10  176 1
  21   11   12 1
  22   11  177 1
  23   12   13 1
  24   12  178 1
  25   12  179 1
  26   13   14 2
  27   13   15 am
  28   15  180 1
  29   15  181 1
  30   16   17 2
  31   16   19 1
  32   16   23 am
  33   18   19 1
  34   18  182 1
  35   19   20 1
  36   19  183 1
  37   20  184 1
  38   20  185 1
  39   20  186 1
  40   21   22 2
  41   21   24 1
  42   21   27 am
  43   23   24 1
  44   23  187 1
  45   24  188 1
  46   24  189 1
  47   25   26 2
  48   25   28 1
  49   25   38 am
  50   27   28 1
  51   27  190 1
  52   28   29 1
  53   28  191 1
  54   29   30 1
  55   29  192 1
  56   29  193 1
  57   30   31 1
  58   30  194 1
  59   30  195 1
  60   31   32 1
  61   31  196 1
  62   31  197 1
  63   32   33 1
  64   32  198 1
  65   33   34 2
  66   33   35 1
  67   34  199 1
  68   35  200 1
  69   35  201 1
  70   36   37 2
  71   36   39 1
  72   36   44 am
  73   38   39 1
  74   38  202 1
  75   39   40 1
  76   39  203 1
  77   40   41 1
  78   40  204 1
  79   40  205 1
  80   41  206 1
  81   42   43 2
  82   42   45 1
  83   42   52 am
  84   44   45 1
  85   44  207 1
  86   45   46 1
  87   45  208 1
  88   46   47 1
  89   46  209 1
  90   46  210 1
  91   47   48 2
  92   47   49 1
  93   49  211 1
  94   50   51 2
  95   50   53 1
  96   50   59 am
  97   52   53 1
  98   52  212 1
  99   53   54 1
 100   53  213 1
 101   54   55 1
 102   54   56 1
 103   54  214 1
 104   55  215 1
 105   55  216 1
 106   55  217 1
 107   56  218 1
 108   57   58 2
 109   57   60 1
 110   57   70 am
 111   59   60 1
 112   59  219 1
 113   60   61 1
 114   60  220 1
 115   61   62 1
 116   61  221 1
 117   61  222 1
 118   62   63 1
 119   62  223 1
 120   62  224 1
 121   63   64 1
 122   63  225 1
 123   63  226 1
 124   64   65 1
 125   64  227 1
 126   65   66 2
 127   65   67 1
 128   66  228 1
 129   67  229 1
 130   67  230 1
 131   68   69 2
 132   68   71 1
 133   68   79 am
 134   70   71 1
 135   70  231 1
 136   71   72 1
 137   71  232 1
 138   72   73 1
 139   72  233 1
 140   72  234 1
 141   73   74 1
 142   73  235 1
 143   73  236 1
 144   74   75 2
 145   74   76 am
 146   76  237 1
 147   76  238 1
 148   77   78 2
 149   77   80 1
 150   77   88 am
 151   79   80 1
 152   79  239 1
 153   80   81 1
 154   80  240 1
 155   81   82 1
 156   81  241 1
 157   81  242 1
 158   82   83 1
 159   82  243 1
 160   82  244 1
 161   83   84 2
 162   83   85 am
 163   85  245 1
 164   85  246 1
 165   86   87 2
 166   86   89 1
 167   86  100 am
 168   88   89 1
 169   88  247 1
 170   89   90 1
 171   89  248 1
 172   90   91 1
 173   90  249 1
 174   90  250 1
 175   91   92 ar
 176   91   97 ar
 177   92   93 ar
 178   92  251 1
 179   93   94 ar
 180   93  252 1
 181   94   95 1
 182   94   96 ar
 183   95  253 1
 184   96   97 ar
 185   96  254 1
 186   97  255 1
 187   98   99 2
 188   98  101 1
 189   98  111 am
 190  100  101 1
 191  100  256 1
 192  101  102 1
 193  101  257 1
 194  102  103 1
 195  102  258 1
 196  102  259 1
 197  103  104 1
 198  103  260 1
 199  103  261 1
 200  104  105 1
 201  104  262 1
 202  104  263 1
 203  105  106 1
 204  105  264 1
 205  106  107 2
 206  106  108 1
 207  107  265 1
 208  108  266 1
 209  108  267 1
 210  109  110 2
 211  109  112 1
 212  109  120 am
 213  111  112 1
 214  111  268 1
 215  112  113 1
 216  112  269 1
 217  113  114 1
 218  113  270 1
 219  113  271 1
 220  114  115 1
 221  114  272 1
 222  114  273 1
 223  115  116 1
 224  115  274 1
 225  115  275 1
 226  116  117 1
 227  116  276 1
 228  116  277 1
 229  117  278 1
 230  117  279 1
 231  118  119 2
 232  118  121 1
 233  118  128 am
 234  120  121 1
 235  120  280 1
 236  121  122 1
 237  121  281 1
 238  122  123 1
 239  122  282 1
 240  122  283 1
 241  123  124 1
 242  123  125 1
 243  123  284 1
 244  124  285 1
 245  124  286 1
 246  124  287 1
 247  125  288 1
 248  125  289 1
 249  125  290 1
 250  126  127 2
 251  126  129 1
 252  126  136 am
 253  128  129 1
 254  128  291 1
 255  129  130 1
 256  129  292 1
 257  130  131 1
 258  130  293 1
 259  130  294 1
 260  131  132 1
 261  131  133 1
 262  131  295 1
 263  132  296 1
 264  132  297 1
 265  132  298 1
 266  133  299 1
 267  133  300 1
 268  133  301 1
 269  134  135 2
 270  134  137 1
 271  134  147 am
 272  136  137 1
 273  136  302 1
 274  137  138 1
 275  137  303 1
 276  138  139 1
 277  138  304 1
 278  138  305 1
 279  139  140 ar
 280  139  144 ar
 281  140  141 ar
 282  140  306 1
 283  141  142 ar
 284  141  307 1
 285  142  143 ar
 286  142  308 1
 287  143  144 ar
 288  143  309 1
 289  144  310 1
 290  145  146 2
 291  145  148 1
 292  145  151 1
 293  147  148 1
 294  147  311 1
 295  148  149 1
 296  148  312 1
 297  149  150 1
 298  149  313 1
 299  149  314 1
 300  150  315 1
 301  151  316 1
 302  152  153 2
 303  152  168 1
 304  154  155 1
 305  154  317 1
 306  154  318 1
 307  154  319 1
 308  155  156 1
 309  155  320 1
 310  155  321 1
 311  156  157 1
 312  156  322 1
 313  156  323 1
 314  157  158 1
 315  157  324 1
 316  157  325 1
 317  158  159 1
 318  158  326 1
 319  158  327 1
 320  159  160 1
 321  159  328 1
 322  159  329 1
 323  160  161 1
 324  160  330 1
 325  160  331 1
 326  161  162 1
 327  161  332 1
 328  161  333 1
 329  162  163 1
 330  162  334 1
 331  162  335 1
 332  163  164 1
 333  163  336 1
 334  163  337 1
 335  164  165 1
 336  164  338 1
 337  164  339 1
 338  165  166 1
 339  165  340 1
 340  165  341 1
 341  166  167 1
 342  166  342 1
 343  166  343 1
 344  167  168 1
 345  167  344 1
 346  167  345 1
 347  168  346 1
 348  168  347 1

#	End of record

