#	Name: ASD01814432
#	Creating user name:	WinNT
#	Creation time:	15. 06. 2019 19:32

#	Modifying user name:	WinNT
#	Modification time:	15. 06. 2019 19:32

#	Program:	/corina/corina34_cracker 3.40 0067  02.08.2006

@<TRIPOS>MOLECULE
ASD01814432
  60   65    0    0    0
SMALL
NO_CHARGES


@<TRIPOS>ATOM
   1 C1            -0.0167     1.3818     0.0096 C.ar    
   2 C2             0.0021    -0.0041     0.0020 C.ar    
   3 C3             1.1970    -0.6935    -0.0127 C.ar    
   4 C4             2.3990     0.0036    -0.0204 C.ar    
   5 C5             2.3750     1.4118    -0.0131 C.ar    
   6 C6             1.1663     2.0939     0.0022 C.ar    
   7 N7             3.6103    -0.6575    -0.0347 N.pl3   
   8 N8             4.7456    -0.0608    -0.0419 N.2     
   9 C9             4.8828     1.2398    -0.0366 C.2     
  10 C10            3.6771     2.1039    -0.0219 C.2     
  11 C11            6.0123     2.1723    -0.0425 C.2     
  12 N12            5.4768     3.4119    -0.0316 N.am    
  13 N13            4.0816     3.3386    -0.0196 N.2     
  14 C14            3.5988    -2.1224    -0.0414 C.3     
  15 C15            3.5818    -2.6181    -1.4645 C.ar    
  16 C16            4.7733    -2.8541    -2.1262 C.ar    
  17 C17            4.7636    -3.3081    -3.4295 C.ar    
  18 C18            3.5505    -3.5287    -4.0787 C.ar    
  19 C19            2.3532    -3.2892    -3.4073 C.ar    
  20 C20            2.3747    -2.8407    -2.1022 C.ar    
  21 O21            7.1981     1.8866    -0.0544 O.2     
  22 C22            6.2491     4.6568    -0.0324 C.3     
  23 C23            5.8946     5.4780    -1.2749 C.3     
  24 O24            6.6055     6.7173    -1.2439 O.3     
  25 C25            6.2939     7.5408    -0.1184 C.3     
  26 C26            6.6644     6.8025     1.1705 C.3     
  27 C27            5.9109     5.4698     1.2210 C.3     
  28 C28            3.5337    -4.0162    -5.4800 C.ar    
  29 C29            4.7252    -4.2574    -6.1578 C.ar    
  30 N30            4.7147    -4.6905    -7.4027 N.ar    
  31 C31            3.5846    -4.9120    -8.0536 C.ar    
  32 C32            2.3548    -4.6937    -7.4434 C.ar    
  33 C33            2.3199    -4.2457    -6.1370 C.ar    
  34 O34            3.6264    -5.3577    -9.3342 O.3     
  35 C35            4.9190    -5.5631    -9.9078 C.3     
  36 H36           -0.9605     1.9069     0.0170 H       
  37 H37           -0.9294    -0.5506     0.0080 H       
  38 H38            1.1982    -1.7735    -0.0178 H       
  39 H39            1.1511     3.1738     0.0077 H       
  40 H40            4.4906    -2.4951     0.4625 H       
  41 H41            2.7107    -2.4812     0.4789 H       
  42 H42            5.7129    -2.6825    -1.6222 H       
  43 H43            5.6945    -3.4918    -3.9454 H       
  44 H44            1.4101    -3.4585    -3.9057 H       
  45 H45            1.4473    -2.6552    -1.5807 H       
  46 H46            7.3141     4.4248    -0.0408 H       
  47 H47            6.1728     4.9216    -2.1699 H       
  48 H48            4.8225     5.6742    -1.2872 H       
  49 H49            6.8597     8.4704    -0.1803 H       
  50 H50            5.2269     7.7640    -0.1156 H       
  51 H51            7.7380     6.6148     1.1870 H       
  52 H52            6.3868     7.4107     2.0314 H       
  53 H53            4.8379     5.6587     1.2545 H       
  54 H54            6.2125     4.9138     2.1087 H       
  55 H55            5.6678    -4.0875    -5.6588 H       
  56 H56            1.4372    -4.8769    -7.9827 H       
  57 H57            1.3787    -4.0680    -5.6381 H       
  58 H58            5.4704    -4.6228    -9.9068 H       
  59 H59            5.4630    -6.3039    -9.3219 H       
  60 H60            4.8095    -5.9190   -10.9322 H       
@<TRIPOS>BOND
   1    1    2 ar
   2    1    6 ar
   3    1   36 1
   4    2    3 ar
   5    2   37 1
   6    3    4 ar
   7    3   38 1
   8    4    5 ar
   9    4    7 1
  10    5    6 ar
  11    5   10 1
  12    6   39 1
  13    7    8 1
  14    7   14 1
  15    8    9 2
  16    9   10 1
  17    9   11 1
  18   10   13 2
  19   11   12 am
  20   11   21 2
  21   12   13 1
  22   12   22 1
  23   14   15 1
  24   14   40 1
  25   14   41 1
  26   15   16 ar
  27   15   20 ar
  28   16   17 ar
  29   16   42 1
  30   17   18 ar
  31   17   43 1
  32   18   19 ar
  33   18   28 1
  34   19   20 ar
  35   19   44 1
  36   20   45 1
  37   22   23 1
  38   22   27 1
  39   22   46 1
  40   23   24 1
  41   23   47 1
  42   23   48 1
  43   24   25 1
  44   25   26 1
  45   25   49 1
  46   25   50 1
  47   26   27 1
  48   26   51 1
  49   26   52 1
  50   27   53 1
  51   27   54 1
  52   28   29 ar
  53   28   33 ar
  54   29   30 ar
  55   29   55 1
  56   30   31 ar
  57   31   32 ar
  58   31   34 1
  59   32   33 ar
  60   32   56 1
  61   33   57 1
  62   34   35 1
  63   35   58 1
  64   35   59 1
  65   35   60 1

#	End of record

