#	Name: ASD02408126
#	Creating user name:	WinNT
#	Creation time:	15. 06. 2019 20:21

#	Modifying user name:	WinNT
#	Modification time:	15. 06. 2019 20:21

#	Program:	/corina/corina34_cracker 3.40 0067  02.08.2006

@<TRIPOS>MOLECULE
ASD02408126
  53   55    0    0    0
SMALL
NO_CHARGES


@<TRIPOS>ATOM
   1 C1            -1.0525     1.7027     0.2331 C.ar    
   2 C2            -1.2991     0.3377     0.2264 C.ar    
   3 C3             0.2334     2.1741     0.0104 C.ar    
   4 C4             1.2644     1.2836    -0.2173 C.ar    
   5 C5             1.0159    -0.0768    -0.2235 C.ar    
   6 C6            -0.2643    -0.5490    -0.0019 C.ar    
   7 C7             0.5048     3.6564     0.0165 C.3     
   8 C8             0.7359     4.1190     1.4320 C.2     
   9 N9             0.9971     5.4212     1.6571 N.am    
  10 N10            0.6712     3.2454     2.3998 N.2     
  11 C11            0.8673     3.5990     3.6764 C.2     
  12 C12            1.1493     4.9407     3.9822 C.2     
  13 C13            1.2087     5.8702     2.9121 C.2     
  14 N14            0.7931     2.6602     4.6759 N.pl3   
  15 C15            0.1520     2.9812     5.9584 C.3     
  16 O16            1.4497     7.0466     3.1210 O.2     
  17 O17           -2.0696     2.5770     0.4519 O.3     
  18 C18           -3.3681     2.0209     0.6678 C.3     
  19 C19           -4.3753     3.1500     0.8944 C.3     
  20 C20           -0.9207     1.9273     6.2508 C.3     
  21 C21           -0.2900     0.5341     6.1948 C.3     
  22 C22            0.2667     0.2803     4.7920 C.3     
  23 C23            1.3478     1.3137     4.4810 C.3     
  24 C24            0.8450     0.4469     7.2170 C.3     
  25 C25           -1.3509    -0.5192     6.5204 C.3     
  26 C26            1.3652     5.3589     5.3346 C.1     
  27 N27            1.5364     5.6906     6.4076 N.1     
  28 H28           -2.2990    -0.0317     0.3998 H       
  29 H29            2.2653     1.6500    -0.3911 H       
  30 H30            1.8233    -0.7714    -0.4021 H       
  31 H31           -0.4558    -1.6119    -0.0072 H       
  32 H32            1.3903     3.8662    -0.5835 H       
  33 H33           -0.3517     4.1843    -0.4030 H       
  34 H34            1.0337     6.0407     0.9116 H       
  35 H35            0.8986     2.9727     6.7524 H       
  36 H36           -0.3104     3.9665     5.8993 H       
  37 H37           -3.6642     1.4397    -0.2055 H       
  38 H38           -3.3448     1.3734     1.5443 H       
  39 H39           -4.3985     3.7975     0.0179 H       
  40 H40           -5.3657     2.7258     1.0591 H       
  41 H41           -4.0792     3.7312     1.7677 H       
  42 H42           -1.3376     2.0983     7.2433 H       
  43 H43           -1.7131     1.9982     5.5057 H       
  44 H44            0.6949    -0.7210     4.7461 H       
  45 H45           -0.5368     0.3667     4.0606 H       
  46 H46            1.6769     1.1988     3.4482 H       
  47 H47            2.1934     1.1718     5.1540 H       
  48 H48            0.4485     0.6264     8.2164 H       
  49 H49            1.2944    -0.5454     7.1773 H       
  50 H50            1.6008     1.1975     6.9858 H       
  51 H51           -2.1600    -0.4570     5.7926 H       
  52 H52           -0.9018    -1.5116     6.4805 H       
  53 H53           -1.7466    -0.3394     7.5199 H       
@<TRIPOS>BOND
   1    1    2 ar
   2    1    3 ar
   3    1   17 1
   4    2    6 ar
   5    2   28 1
   6    3    4 ar
   7    3    7 1
   8    4    5 ar
   9    4   29 1
  10    5    6 ar
  11    5   30 1
  12    6   31 1
  13    7    8 1
  14    7   32 1
  15    7   33 1
  16    8    9 1
  17    8   10 2
  18    9   13 am
  19    9   34 1
  20   10   11 1
  21   11   12 2
  22   11   14 1
  23   12   13 1
  24   12   26 1
  25   13   16 2
  26   14   15 1
  27   14   23 1
  28   15   20 1
  29   15   35 1
  30   15   36 1
  31   17   18 1
  32   18   19 1
  33   18   37 1
  34   18   38 1
  35   19   39 1
  36   19   40 1
  37   19   41 1
  38   20   21 1
  39   20   42 1
  40   20   43 1
  41   21   22 1
  42   21   24 1
  43   21   25 1
  44   22   23 1
  45   22   44 1
  46   22   45 1
  47   23   46 1
  48   23   47 1
  49   24   48 1
  50   24   49 1
  51   24   50 1
  52   25   51 1
  53   25   52 1
  54   25   53 1
  55   26   27 3

#	End of record

