#	Name: ASD03091561
#	Creating user name:	WinNT
#	Creation time:	15. 06. 2019 20:30

#	Modifying user name:	WinNT
#	Modification time:	15. 06. 2019 20:30

#	Program:	/corina/corina34_cracker 3.40 0067  02.08.2006

@<TRIPOS>MOLECULE
ASD03091561
  28   29    0    0    0
SMALL
NO_CHARGES


@<TRIPOS>ATOM
   1 C1            -0.0163     1.3475     0.0095 C.2     
   2 C2             0.0021    -0.0041     0.0020 C.2     
   3 S3            -1.6633    -0.5787     0.0155 S.3     
   4 C4            -2.2429     1.0836     0.0302 C.2     
   5 N5            -1.2351     1.8960     0.0297 N.2     
   6 N6            -3.5744     1.4641     0.0448 N.3     
   7 C7            -4.4582     0.2893     0.0471 C.3     
   8 C8            -3.8612     2.3340     1.1947 C.3     
   9 C9            -5.3253     2.7783     1.1391 C.3     
  10 O10           -6.1680     1.6231     1.1105 O.3     
  11 C11           -5.9162     0.7541     0.0030 C.3     
  12 C12           -6.8425    -0.4609     0.0860 C.3     
  13 C13           -5.6516     3.6182     2.3756 C.3     
  14 Br14           1.5492    -1.0912    -0.0201 Br      
  15 C15            1.1809     2.1332     0.0022 C.1     
  16 N16            2.1307     2.7565    -0.0035 N.1     
  17 H17           -4.2461    -0.3274    -0.8264 H       
  18 H18           -4.2887    -0.2919     0.9535 H       
  19 H19           -3.6822     1.7855     2.1195 H       
  20 H20           -3.2134     3.2099     1.1591 H       
  21 H21           -5.4914     3.3724     0.2405 H       
  22 H22           -6.0996     1.2893    -0.9287 H       
  23 H23           -7.8804    -0.1290     0.0584 H       
  24 H24           -6.6501    -1.1228    -0.7583 H       
  25 H25           -6.6568    -0.9963     1.0171 H       
  26 H26           -5.0064     4.4964     2.3988 H       
  27 H27           -6.6940     3.9342     2.3354 H       
  28 H28           -5.4869     3.0225     3.2734 H       
@<TRIPOS>BOND
   1    1    2 2
   2    1   15 1
   3    1    5 1
   4    2    3 1
   5    2   14 1
   6    3    4 1
   7    4    5 2
   8    4    6 1
   9    6    7 1
  10    6    8 1
  11    7   11 1
  12    7   17 1
  13    7   18 1
  14    8    9 1
  15    8   19 1
  16    8   20 1
  17    9   10 1
  18    9   13 1
  19    9   21 1
  20   10   11 1
  21   11   12 1
  22   11   22 1
  23   12   23 1
  24   12   24 1
  25   12   25 1
  26   13   26 1
  27   13   27 1
  28   13   28 1
  29   15   16 3

#	End of record

