#	Name: ASD01914813
#	Creating user name:	WinNT
#	Creation time:	15. 06. 2019 20:04

#	Modifying user name:	WinNT
#	Modification time:	15. 06. 2019 20:04

#	Program:	/corina/corina34_cracker 3.40 0067  02.08.2006

@<TRIPOS>MOLECULE
ASD01914813
  17   18    0    0    0
SMALL
NO_CHARGES


@<TRIPOS>ATOM
   1 C1            -0.0168     1.3890     0.0097 C.ar    
   2 C2             0.0021    -0.0041     0.0020 C.ar    
   3 C3             1.2339    -0.6632    -0.0133 C.ar    
   4 C4             2.3880     0.1018    -0.0202 C.ar    
   5 C5             2.2854     1.4807    -0.0118 C.ar    
   6 N6             1.1077     2.0748     0.0026 N.ar    
   7 O7            -2.6294    -2.2950    -0.3989 O.3     
   8 N8            -1.4985    -1.9144    -0.5936 N.2     
   9 C9            -1.2659    -0.7755     0.0104 C.2     
  10 C10           -2.4745    -0.4274     0.6769 C.2     
  11 C11           -3.3160    -1.4433     0.3768 C.2     
  12 Br12          -2.8226     1.0995     1.7367 Br      
  13 H13           -0.9621     1.9113     0.0170 H       
  14 H14            1.2846    -1.7420    -0.0192 H       
  15 H15            3.3578    -0.3734    -0.0316 H       
  16 H16            3.1835     2.0806    -0.0167 H       
  17 H17           -4.3414    -1.5480     0.6993 H       
@<TRIPOS>BOND
   1    1    2 ar
   2    1    6 ar
   3    1   13 1
   4    2    3 ar
   5    2    9 1
   6    3    4 ar
   7    3   14 1
   8    4    5 ar
   9    4   15 1
  10    5    6 ar
  11    5   16 1
  12    7    8 1
  13    7   11 1
  14    8    9 2
  15    9   10 1
  16   10   11 2
  17   10   12 1
  18   11   17 1

#	End of record

