#	Name: ASD01884894
#	Creating user name:	WinNT
#	Creation time:	15. 06. 2019 19:49

#	Modifying user name:	WinNT
#	Modification time:	15. 06. 2019 19:49

#	Program:	/corina/corina34_cracker 3.40 0067  02.08.2006

@<TRIPOS>MOLECULE
ASD01884894
  43   48    0    0    0
SMALL
NO_CHARGES


@<TRIPOS>ATOM
   1 N1            -0.0157     1.3098     0.0092 N.ar    
   2 C2             0.0021    -0.0041     0.0020 C.ar    
   3 C3             1.2056    -0.7160    -0.0128 C.ar    
   4 C4             2.4101    -0.0128    -0.0206 C.ar    
   5 C5             2.3536     1.3807    -0.0130 C.ar    
   6 C6             1.1015     2.0258     0.0024 C.ar    
   7 C7             3.3625     2.4432    -0.0171 C.2     
   8 C8             2.7008     3.6102    -0.0050 C.2     
   9 N9             1.3485     3.3807     0.0068 N.pl3   
  10 C10            1.2013    -2.1978    -0.0198 C.2     
  11 C11            0.6845    -2.8897    -1.1000 C.2     
  12 C12            1.7317    -2.9196     1.0770 C.2     
  13 C13            1.7278    -4.2656     1.0686 C.2     
  14 N14            1.2150    -4.9575     0.0088 N.pl3   
  15 C15            0.6951    -4.2958    -1.0771 C.2     
  16 Cl16           0.0322    -2.0354    -2.4632 Cl      
  17 C17            1.0817    -6.2844    -0.2659 C.2     
  18 N18            0.5134    -6.3887    -1.4395 N.2     
  19 N19            0.2811    -5.2215    -1.9286 N.2     
  20 C20            0.3674     4.3738     0.0207 C.ar    
  21 C21            1.5113    -7.4250     0.6204 C.3     
  22 C22            0.4311    -8.4031     1.0865 C.3     
  23 C23            1.4527    -8.8366     0.0332 C.3     
  24 N24           -0.9111     4.0322     0.0308 N.ar    
  25 C25           -1.8696     4.9387     0.0441 C.ar    
  26 C26           -1.5694     6.2865     0.0479 C.ar    
  27 C27           -0.2400     6.6866     0.0375 C.ar    
  28 C28            0.7425     5.7123     0.0295 C.ar    
  29 H29           -0.9324    -0.5455     0.0080 H       
  30 H30            3.3573    -0.5315    -0.0317 H       
  31 H31            4.4344     2.3119    -0.0275 H       
  32 H32            3.1642     4.5857    -0.0041 H       
  33 H33            2.1412    -2.3881     1.9233 H       
  34 H34            2.1357    -4.8053     1.9104 H       
  35 H35            2.3214    -7.2016     1.3146 H       
  36 H36            0.5307    -8.8235     2.0872 H       
  37 H37           -0.5904    -8.2216     0.7522 H       
  38 H38            1.1033    -8.9403    -0.9940 H       
  39 H39            2.2243    -9.5422     0.3410 H       
  40 H40           -2.9022     4.6225     0.0517 H       
  41 H41           -2.3604     7.0217     0.0584 H       
  42 H42            0.0214     7.7345     0.0402 H       
  43 H43            1.7867     5.9880     0.0217 H       
@<TRIPOS>BOND
   1    1    2 ar
   2    1    6 ar
   3    2    3 ar
   4    2   29 1
   5    3    4 ar
   6    3   10 1
   7    4    5 ar
   8    4   30 1
   9    5    6 ar
  10    5    7 1
  11    6    9 1
  12    7    8 2
  13    7   31 1
  14    8    9 1
  15    8   32 1
  16    9   20 1
  17   10   11 2
  18   10   12 1
  19   11   16 1
  20   11   15 1
  21   12   13 2
  22   12   33 1
  23   13   14 1
  24   13   34 1
  25   14   15 1
  26   14   17 1
  27   15   19 2
  28   17   18 2
  29   17   21 1
  30   18   19 1
  31   20   24 ar
  32   20   28 ar
  33   21   22 1
  34   21   23 1
  35   21   35 1
  36   22   23 1
  37   22   36 1
  38   22   37 1
  39   23   38 1
  40   23   39 1
  41   24   25 ar
  42   25   26 ar
  43   25   40 1
  44   26   27 ar
  45   26   41 1
  46   27   28 ar
  47   27   42 1
  48   28   43 1

#	End of record

