#	Name: ASD01915297
#	Creating user name:	WinNT
#	Creation time:	15. 06. 2019 20:05

#	Modifying user name:	WinNT
#	Modification time:	15. 06. 2019 20:05

#	Program:	/corina/corina34_cracker 3.40 0067  02.08.2006

@<TRIPOS>MOLECULE
ASD01915297
  32   34    0    0    0
SMALL
NO_CHARGES


@<TRIPOS>ATOM
   1 C1            -0.0168     1.3843     0.0097 C.ar    
   2 C2             0.0021    -0.0041     0.0020 C.ar    
   3 C3            -1.1777    -0.7246     0.0094 C.ar    
   4 C4            -2.3999    -0.0665     0.0251 C.ar    
   5 C5            -2.4192     1.3375     0.0333 C.ar    
   6 C6            -1.2260     2.0594     0.0306 C.ar    
   7 N7            -3.7078    -0.5524     0.0356 N.am    
   8 C8            -4.6034     0.4498     0.0503 C.2     
   9 C9            -3.8381     1.7397     0.0499 C.2     
  10 C10           -4.0602    -1.9744     0.0303 C.3     
  11 C11           -4.1664    -2.4709     1.4492 C.ar    
  12 O12           -4.2876     2.8669     0.0615 O.2     
  13 O13           -5.8108     0.3324     0.0613 O.2     
  14 C14           -5.3766    -2.4145     2.1237 C.ar    
  15 C15           -5.4280    -2.8823     3.4275 C.ar    
  16 C16           -4.2780    -3.3865     4.0084 C.ar    
  17 N17           -3.1433    -3.4244     3.3355 N.ar    
  18 C18           -3.0602    -2.9932     2.0920 C.ar    
  19 Cl19          -4.3280    -3.9752     5.6408 Cl      
  20 O20            1.1513     2.0807     0.0022 O.3     
  21 C21            2.3605     1.3194    -0.0134 C.3     
  22 F22            2.3928     0.5189    -1.1603 F       
  23 F23            3.4579     2.1871    -0.0192 F       
  24 F24            2.4146     0.5067     1.1241 F       
  25 H25            0.9475    -0.5260    -0.0102 H       
  26 H26           -1.1484    -1.8042     0.0026 H       
  27 H27           -1.2448     3.1392     0.0373 H       
  28 H28           -5.0167    -2.1098    -0.4746 H       
  29 H29           -3.2891    -2.5379    -0.4951 H       
  30 H30           -6.2583    -2.0152     1.6446 H       
  31 H31           -6.3538    -2.8533     3.9829 H       
  32 H32           -2.1143    -3.0404     1.5729 H       
@<TRIPOS>BOND
   1    1    2 ar
   2    1   20 1
   3    1    6 ar
   4    2    3 ar
   5    2   25 1
   6    3    4 ar
   7    3   26 1
   8    4    5 ar
   9    4    7 1
  10    5    6 ar
  11    5    9 1
  12    6   27 1
  13    7    8 am
  14    7   10 1
  15    8    9 1
  16    8   13 2
  17    9   12 2
  18   10   11 1
  19   10   28 1
  20   10   29 1
  21   11   14 ar
  22   11   18 ar
  23   14   15 ar
  24   14   30 1
  25   15   16 ar
  26   15   31 1
  27   16   17 ar
  28   16   19 1
  29   17   18 ar
  30   18   32 1
  31   20   21 1
  32   21   22 1
  33   21   23 1
  34   21   24 1

#	End of record

