#	Name: ASD00431227
#	Creating user name:	WinNT
#	Creation time:	15. 06. 2019 18:35

#	Modifying user name:	WinNT
#	Modification time:	15. 06. 2019 18:35

#	Program:	/corina/corina34_cracker 3.40 0067  02.08.2006

@<TRIPOS>MOLECULE
ASD00431227
  55   59    0    0    0
SMALL
NO_CHARGES


@<TRIPOS>ATOM
   1 C1            -0.3987     1.2535    -0.1985 C.2     
   2 N2            -0.4442    -0.0908    -0.2164 N.am    
   3 C3             0.7893    -0.6152    -0.3316 C.2     
   4 C4             1.7671     0.4912    -0.3982 C.ar    
   5 C5             3.1461     0.5584    -0.5160 C.ar    
   6 C6             3.7736     1.7939    -0.5498 C.ar    
   7 C7             3.0334     2.9583    -0.4669 C.ar    
   8 C8             1.6533     2.9066    -0.3487 C.ar    
   9 C9             1.0123     1.6786    -0.3136 C.ar    
  10 O10           -1.3570     1.9941    -0.1082 O.2     
  11 O11            1.0550    -1.7995    -0.3731 O.2     
  12 C12           -1.6749    -0.8799    -0.1223 C.3     
  13 C13           -1.8253    -1.7420    -1.3773 C.3     
  14 O14           -0.5373    -2.4404     1.5364 O.3     
  15 N15           -0.7832    -3.0732     2.5369 N.2     
  16 C16           -2.0347    -2.9206     2.9033 C.2     
  17 C17           -2.6215    -2.0430     1.9458 C.2     
  18 C18           -1.6101    -1.7688     1.0929 C.2     
  19 S19           -4.3836    -3.3130     4.5394 S.3     
  20 C20           -4.1567    -4.3453     5.8829 C.2     
  21 N21           -2.9328    -4.7746     5.9194 N.2     
  22 C22           -2.1246    -4.3626     4.9675 C.2     
  23 C23           -2.6996    -3.5340     4.0707 C.2     
  24 O24           -5.1173    -4.6687     6.7811 O.3     
  25 C25           -4.8124    -5.5826     7.7405 C.ar    
  26 C26           -3.8808    -5.2744     8.7212 C.ar    
  27 C27           -3.5712    -6.2028     9.6957 C.ar    
  28 C28           -4.1915    -7.4435     9.6938 C.ar    
  29 C29           -5.1229    -7.7518     8.7133 C.ar    
  30 C30           -5.4370    -6.8214     7.7421 C.ar    
  31 O31           -3.8862    -8.3576    10.6530 O.3     
  32 C32           -4.6203    -9.5836    10.6379 C.3     
  33 C33           -3.8159   -10.6685    11.3569 C.3     
  34 C34           -5.9595    -9.3849    11.3506 C.3     
  35 H35            3.7296    -0.3481    -0.5808 H       
  36 H36            4.8484     1.8471    -0.6412 H       
  37 H37            3.5338     3.9150    -0.4939 H       
  38 H38            1.0800     3.8196    -0.2840 H       
  39 H39           -2.5305    -0.2099    -0.0371 H       
  40 H40           -2.7410    -2.3291    -1.3073 H       
  41 H41           -1.8722    -1.0990    -2.2563 H       
  42 H42           -0.9697    -2.4120    -1.4625 H       
  43 H43           -3.6384    -1.6811     1.9102 H       
  44 H44           -1.0886    -4.6619     4.9083 H       
  45 H45           -3.3976    -4.3085     8.7224 H       
  46 H46           -2.8457    -5.9630    10.4590 H       
  47 H47           -5.6056    -8.7179     8.7118 H       
  48 H48           -6.1655    -7.0598     6.9812 H       
  49 H49           -4.7991    -9.8873     9.6065 H       
  50 H50           -3.6371   -10.3648    12.3883 H       
  51 H51           -4.3759   -11.6036    11.3454 H       
  52 H52           -2.8619   -10.8100    10.8492 H       
  53 H53           -6.5325    -8.6120    10.8384 H       
  54 H54           -6.5194   -10.3201    11.3391 H       
  55 H55           -5.7807    -9.0812    12.3820 H       
@<TRIPOS>BOND
   1    1    2 am
   2    1    9 1
   3    1   10 2
   4    2    3 am
   5    2   12 1
   6    3    4 1
   7    3   11 2
   8    4    5 ar
   9    4    9 ar
  10    5    6 ar
  11    5   35 1
  12    6    7 ar
  13    6   36 1
  14    7    8 ar
  15    7   37 1
  16    8    9 ar
  17    8   38 1
  18   12   13 1
  19   12   18 1
  20   12   39 1
  21   13   40 1
  22   13   41 1
  23   13   42 1
  24   14   15 1
  25   14   18 1
  26   15   16 2
  27   16   17 1
  28   16   23 1
  29   17   18 2
  30   17   43 1
  31   19   20 1
  32   19   23 1
  33   20   21 2
  34   20   24 1
  35   21   22 1
  36   22   23 2
  37   22   44 1
  38   24   25 1
  39   25   26 ar
  40   25   30 ar
  41   26   27 ar
  42   26   45 1
  43   27   28 ar
  44   27   46 1
  45   28   29 ar
  46   28   31 1
  47   29   30 ar
  48   29   47 1
  49   30   48 1
  50   31   32 1
  51   32   33 1
  52   32   34 1
  53   32   49 1
  54   33   50 1
  55   33   51 1
  56   33   52 1
  57   34   53 1
  58   34   54 1
  59   34   55 1

#	End of record

