#	Name: ASD05323011
#	Creating user name:	WinNT
#	Creation time:	15. 06. 2019 20:59

#	Modifying user name:	WinNT
#	Modification time:	15. 06. 2019 20:59

#	Program:	/corina/corina34_cracker 3.40 0067  02.08.2006

@<TRIPOS>MOLECULE
ASD05323011
  52   55    0    0    0
SMALL
NO_CHARGES


@<TRIPOS>ATOM
   1 C1            -0.0187     1.5258     0.0104 C.3     
   2 C2             0.0021    -0.0041     0.0020 C.3     
   3 P3             1.6916     2.1568    -0.0025 P.3     
   4 O4             2.4039     1.7481    -1.3873 O.3     
   5 O5             1.6730     3.7605     0.1386 O.3     
   6 O6             2.4423     1.5705     1.1303 O.2     
   7 O7            -2.1040    -0.1936    -1.2201 O.3     
   8 C8            -1.4333    -0.5336     0.0129 C.3     
   9 C9            -1.4365    -2.0780     0.0510 C.3     
  10 C10           -2.6298    -2.4732    -0.8473 C.3     
  11 C11           -3.2065    -1.1210    -1.3219 C.3     
  12 O12           -3.6052    -3.1969    -0.0944 O.3     
  13 O13           -1.6384    -2.5455     1.3862 O.3     
  14 C14           -2.7750    -1.5107    -3.6751 C.2     
  15 N15           -3.1380    -1.6146    -4.9656 N.am    
  16 C16           -4.4241    -1.4263    -5.3288 C.2     
  17 C17           -5.4108    -1.1078    -4.2881 C.2     
  18 C18           -4.9823    -1.0161    -2.9967 C.2     
  19 N19           -3.6629    -1.2203    -2.7105 N.am    
  20 C20           -7.1945     0.1872    -5.4216 C.ar    
  21 C21           -6.8361    -0.8910    -4.6330 C.ar    
  22 C22           -7.8113    -1.7824    -4.1566 C.ar    
  23 C23           -9.1236    -1.6058    -4.4584 C.ar    
  24 C24           -9.5210    -0.5192    -5.2578 C.ar    
  25 C25          -10.8723    -0.3151    -5.5845 C.ar    
  26 C26          -11.2259     0.7458    -6.3606 C.ar    
  27 C27          -10.2670     1.6370    -6.8388 C.ar    
  28 C28           -8.9489     1.4720    -6.5435 C.ar    
  29 C29           -8.5451     0.3874    -5.7443 C.ar    
  30 O30           -4.7597    -1.5180    -6.4953 O.2     
  31 O31           -1.6110    -1.6894    -3.3725 O.2     
  32 H32           -0.5459     1.8868    -0.8726 H       
  33 H33           -0.5289     1.8773     0.9072 H       
  34 H34            0.5123    -0.3556    -0.8948 H       
  35 H35            0.5293    -0.3651     0.8851 H       
  36 H36            1.9645     2.0987    -2.1741 H       
  37 H37            2.5511     4.1655     0.1390 H       
  38 H38           -1.9804    -0.1319     0.8657 H       
  39 H39           -0.5052    -2.4720    -0.3559 H       
  40 H40           -2.2885    -3.0626    -1.6983 H       
  41 H41           -4.0256    -0.8093    -0.6738 H       
  42 H42           -3.2777    -4.0268     0.2787 H       
  43 H43           -1.6492    -3.5089     1.4681 H       
  44 H44           -2.4723    -1.8257    -5.6388 H       
  45 H45           -5.6809    -0.7833    -2.2066 H       
  46 H46           -6.4413     0.8722    -5.7821 H       
  47 H47           -7.5136    -2.6195    -3.5425 H       
  48 H48           -9.8618    -2.3000    -4.0850 H       
  49 H49          -11.6270    -0.9971    -5.2217 H       
  50 H50          -12.2655     0.8992    -6.6098 H       
  51 H51          -10.5745     2.4704    -7.4530 H       
  52 H52           -8.2165     2.1701    -6.9213 H       
@<TRIPOS>BOND
   1    1    2 1
   2    1    3 1
   3    1   32 1
   4    1   33 1
   5    2    8 1
   6    2   34 1
   7    2   35 1
   8    3    4 1
   9    3    5 1
  10    3    6 2
  11    4   36 1
  12    5   37 1
  13    7    8 1
  14    7   11 1
  15    8    9 1
  16    8   38 1
  17    9   10 1
  18    9   13 1
  19    9   39 1
  20   10   11 1
  21   10   12 1
  22   10   40 1
  23   11   19 1
  24   11   41 1
  25   12   42 1
  26   13   43 1
  27   14   15 am
  28   14   19 am
  29   14   31 2
  30   15   16 am
  31   15   44 1
  32   16   17 1
  33   16   30 2
  34   17   18 2
  35   17   21 1
  36   18   19 1
  37   18   45 1
  38   20   21 ar
  39   20   29 ar
  40   20   46 1
  41   21   22 ar
  42   22   23 ar
  43   22   47 1
  44   23   24 ar
  45   23   48 1
  46   24   25 ar
  47   24   29 ar
  48   25   26 ar
  49   25   49 1
  50   26   27 ar
  51   26   50 1
  52   27   28 ar
  53   27   51 1
  54   28   29 ar
  55   28   52 1

#	End of record

