#	Name: ASD01100010
#	Creating user name:	WinNT
#	Creation time:	15. 06. 2019 18:58

#	Modifying user name:	WinNT
#	Modification time:	15. 06. 2019 18:58

#	Program:	/corina/corina34_cracker 3.40 0067  02.08.2006

@<TRIPOS>MOLECULE
ASD01100010
  27   27    0    0    0
SMALL
NO_CHARGES


@<TRIPOS>ATOM
   1 C1            -0.0167     1.3793     0.0096 C.ar    
   2 C2             0.0021    -0.0041     0.0020 C.ar    
   3 C3             1.2098    -0.6789    -0.0131 C.ar    
   4 C4             2.3967     0.0292    -0.0207 C.ar    
   5 C5             2.3773     1.4115    -0.0131 C.ar    
   6 C6             1.1709     2.0863     0.0021 C.ar    
   7 C7             3.6719     2.1830    -0.0208 C.3     
   8 C8             3.7284     3.0570    -1.2471 C.2     
   9 C9             3.7522     3.0569     1.2325 C.3     
  10 C10            3.6948     2.1695     2.4776 C.3     
  11 C11            5.0665     3.8401     1.2247 C.3     
  12 Cl12          -1.4892    -0.8928     0.0121 Cl      
  13 O13            4.7974     3.8391    -1.4651 O.3     
  14 O14            2.8117     3.0538    -2.0341 O.2     
  15 H15           -0.9592     1.9066     0.0170 H       
  16 H16            1.2250    -1.7588    -0.0187 H       
  17 H17            3.3395    -0.4974    -0.0321 H       
  18 H18            1.1564     3.1662     0.0080 H       
  19 H19            4.5100     1.4862    -0.0322 H       
  20 H20            2.9141     3.7537     1.2439 H       
  21 H21            4.5329     1.4728     2.4661 H       
  22 H22            3.7520     2.7921     3.3704 H       
  23 H23            2.7584     1.6115     2.4831 H       
  24 H24            5.1074     4.4723     0.3377 H       
  25 H25            5.1237     4.4628     2.1175 H       
  26 H26            5.9046     3.1434     1.2132 H       
  27 H27            4.7882     4.3820    -2.2653 H       
@<TRIPOS>BOND
   1    1    2 ar
   2    1    6 ar
   3    1   15 1
   4    2    3 ar
   5    2   12 1
   6    3    4 ar
   7    3   16 1
   8    4    5 ar
   9    4   17 1
  10    5    6 ar
  11    5    7 1
  12    6   18 1
  13    7    8 1
  14    7    9 1
  15    7   19 1
  16    8   13 1
  17    8   14 2
  18    9   10 1
  19    9   11 1
  20    9   20 1
  21   10   21 1
  22   10   22 1
  23   10   23 1
  24   11   24 1
  25   11   25 1
  26   11   26 1
  27   13   27 1

#	End of record

