#	Name: ASD01914519
#	Creating user name:	WinNT
#	Creation time:	15. 06. 2019 20:03

#	Modifying user name:	WinNT
#	Modification time:	15. 06. 2019 20:03

#	Program:	/corina/corina34_cracker 3.40 0067  02.08.2006

@<TRIPOS>MOLECULE
ASD01914519
  59   63    0    0    0
SMALL
NO_CHARGES


@<TRIPOS>ATOM
   1 C1            -0.0168     1.3902     0.0097 C.ar    
   2 C2             0.0021    -0.0041     0.0020 C.ar    
   3 N3             1.1281     2.0669     0.0024 N.ar    
   4 N4             1.1562    -0.6463    -0.0125 N.ar    
   5 C5             2.2907     0.0310    -0.0196 C.ar    
   6 C6             2.2753     1.4182    -0.0120 C.ar    
   7 C7            -1.3085     2.1156     0.0197 C.2     
   8 O8            -2.3536     1.4956     0.0213 O.2     
   9 N9            -1.3245     3.4633     0.0271 N.am    
  10 C10           -2.6019     4.1806     0.0371 C.3     
  11 C11           -2.3402     5.6880     0.0440 C.3     
  12 C12           -3.6742     6.4372     0.0544 C.3     
  13 C13           -4.4661     6.0513     1.3053 C.3     
  14 C14           -4.7278     4.5439     1.2984 C.3     
  15 C15           -5.5315     4.1715     0.0509 C.3     
  16 C16           -4.7396     4.5574    -1.2000 C.3     
  17 C17           -3.4056     3.8083    -1.2104 C.3     
  18 C18           -4.4779     6.0649    -1.1931 C.3     
  19 C19           -3.3938     3.7947     1.2880 C.3     
  20 N20           -3.4236     7.8806     0.0611 N.am    
  21 C21           -4.4583     8.7442     0.0707 C.2     
  22 C22           -4.2054    10.2010     0.0774 C.ar    
  23 C23           -5.2747    11.0971     0.0873 C.ar    
  24 C24           -5.0302    12.4599     0.0935 C.ar    
  25 C25           -3.7243    12.9316     0.0894 C.ar    
  26 C26           -2.6638    12.0448     0.0791 C.ar    
  27 C27           -2.8962    10.6845     0.0796 C.ar    
  28 O28           -5.5994     8.3254     0.0738 O.2     
  29 O29           -6.0689    13.3363     0.1032 O.3     
  30 C30           -5.7437    14.7278     0.1092 C.3     
  31 C31            3.5727     2.1848    -0.0208 C.3     
  32 H32           -0.9252    -0.5578     0.0083 H       
  33 H33            3.2328    -0.4969    -0.0315 H       
  34 H34           -0.4903     3.9582     0.0259 H       
  35 H35           -1.7676     5.9533     0.9328 H       
  36 H36           -1.7760     5.9630    -0.8471 H       
  37 H37           -3.8935     6.3166     2.1941 H       
  38 H38           -5.4165     6.5850     1.3127 H       
  39 H39           -5.2920     4.2689     2.1896 H       
  40 H40           -5.7180     3.0976     0.0459 H       
  41 H41           -6.4819     4.7052     0.0583 H       
  42 H42           -5.3122     4.2922    -2.0888 H       
  43 H43           -2.8414     4.0832    -2.1016 H       
  44 H44           -3.5921     2.7343    -1.2154 H       
  45 H45           -5.4283     6.5986    -1.1857 H       
  46 H46           -3.9137     6.3398    -2.0843 H       
  47 H47           -3.5802     2.7208     1.2830 H       
  48 H48           -2.8212     4.0600     2.1767 H       
  49 H49           -2.5130     8.2148     0.0586 H       
  50 H50           -6.2900    10.7290     0.0898 H       
  51 H51           -3.5363    13.9951     0.0939 H       
  52 H52           -1.6502    12.4178     0.0756 H       
  53 H53           -2.0654     9.9944     0.0764 H       
  54 H54           -5.1564    14.9598     0.9976 H       
  55 H55           -5.1649    14.9695    -0.7823 H       
  56 H56           -6.6616    15.3155     0.1167 H       
  57 H57            3.8955     2.3644     1.0047 H       
  58 H58            4.3332     1.6060    -0.5450 H       
  59 H59            3.4279     3.1384    -0.5285 H       
@<TRIPOS>BOND
   1    1    2 ar
   2    1    3 ar
   3    1    7 1
   4    2    4 ar
   5    2   32 1
   6    3    6 ar
   7    4    5 ar
   8    5    6 ar
   9    5   33 1
  10    6   31 1
  11    7    8 2
  12    7    9 am
  13    9   10 1
  14    9   34 1
  15   10   11 1
  16   10   17 1
  17   10   19 1
  18   11   12 1
  19   11   35 1
  20   11   36 1
  21   12   13 1
  22   12   18 1
  23   12   20 1
  24   13   14 1
  25   13   37 1
  26   13   38 1
  27   14   15 1
  28   14   19 1
  29   14   39 1
  30   15   16 1
  31   15   40 1
  32   15   41 1
  33   16   17 1
  34   16   18 1
  35   16   42 1
  36   17   43 1
  37   17   44 1
  38   18   45 1
  39   18   46 1
  40   19   47 1
  41   19   48 1
  42   20   21 am
  43   20   49 1
  44   21   22 1
  45   21   28 2
  46   22   23 ar
  47   22   27 ar
  48   23   24 ar
  49   23   50 1
  50   24   25 ar
  51   24   29 1
  52   25   26 ar
  53   25   51 1
  54   26   27 ar
  55   26   52 1
  56   27   53 1
  57   29   30 1
  58   30   54 1
  59   30   55 1
  60   30   56 1
  61   31   57 1
  62   31   58 1
  63   31   59 1

#	End of record

