#	Name: ASD01917518
#	Creating user name:	WinNT
#	Creation time:	15. 06. 2019 20:09

#	Modifying user name:	WinNT
#	Modification time:	15. 06. 2019 20:09

#	Program:	/corina/corina34_cracker 3.40 0067  02.08.2006

@<TRIPOS>MOLECULE
ASD01917518
  39   41    0    0    0
SMALL
NO_CHARGES


@<TRIPOS>ATOM
   1 C1            -0.0188     1.5345     0.0105 C.3     
   2 C2             0.0021    -0.0041     0.0020 C.3     
   3 C3             1.0346    -0.4943     1.0190 C.3     
   4 C4             0.7319     0.0808     2.4040 C.3     
   5 C5             0.6797     1.6157     2.3091 C.3     
   6 C6             1.8973     2.0694     1.4711 C.3     
   7 C7             1.4500     2.0174    -0.0010 C.3     
   8 C8            -0.5348     1.9653     1.4089 C.3     
   9 N9             0.6294     2.2583     3.6246 N.am    
  10 C10            1.6224     2.0542     4.5127 C.2     
  11 O11            2.5596     1.3371     4.2222 O.2     
  12 C12            1.5715     2.7035     5.8418 C.ar    
  13 C13            2.6028     2.4885     6.7577 C.ar    
  14 C14            2.5393     3.1061     8.0005 C.ar    
  15 C15            1.4499     3.9138     8.2812 C.ar    
  16 C16            0.4623     4.0818     7.3229 C.ar    
  17 N17            0.5480     3.4904     6.1520 N.ar    
  18 F18            3.6466     1.6916     6.4405 F       
  19 C19           -0.8269     2.1076    -1.1251 C.2     
  20 O20           -0.3018     2.8469    -1.9304 O.2     
  21 N21           -2.1332     1.7984    -1.2458 N.am    
  22 H22           -0.9836    -0.3836     0.2712 H       
  23 H23            0.2722    -0.3597    -0.9923 H       
  24 H24            1.0056    -1.5829     1.0662 H       
  25 H25            2.0288    -0.1759     0.7056 H       
  26 H26           -0.2295    -0.2959     2.7531 H       
  27 H27            1.5160    -0.2150     3.1010 H       
  28 H28            2.1797     3.0869     1.7411 H       
  29 H29            2.7360     1.3921     1.6319 H       
  30 H30            2.0710     1.3148    -0.5566 H       
  31 H31            1.5146     3.0097    -0.4474 H       
  32 H32           -0.7460     3.0343     1.4353 H       
  33 H33           -1.4134     1.3877     1.6963 H       
  34 H34           -0.1186     2.8307     3.8565 H       
  35 H35            3.3212     2.9594     8.7309 H       
  36 H36            1.3703     4.4080     9.2382 H       
  37 H37           -0.3881     4.7110     7.5401 H       
  38 H38           -2.5532     1.2071    -0.6018 H       
  39 H39           -2.6533     2.1673    -1.9768 H       
@<TRIPOS>BOND
   1    1    2 1
   2    1    7 1
   3    1    8 1
   4    1   19 1
   5    2    3 1
   6    2   22 1
   7    2   23 1
   8    3    4 1
   9    3   24 1
  10    3   25 1
  11    4    5 1
  12    4   26 1
  13    4   27 1
  14    5    6 1
  15    5    8 1
  16    5    9 1
  17    6    7 1
  18    6   28 1
  19    6   29 1
  20    7   30 1
  21    7   31 1
  22    8   32 1
  23    8   33 1
  24    9   10 am
  25    9   34 1
  26   10   11 2
  27   10   12 1
  28   12   13 ar
  29   12   17 ar
  30   13   14 ar
  31   13   18 1
  32   14   15 ar
  33   14   35 1
  34   15   16 ar
  35   15   36 1
  36   16   17 ar
  37   16   37 1
  38   19   20 2
  39   19   21 am
  40   21   38 1
  41   21   39 1

#	End of record

