#	Name: ASD07931862
#	Creating user name:	WinNT
#	Creation time:	15. 06. 2019 21:13

#	Modifying user name:	WinNT
#	Modification time:	15. 06. 2019 21:13

#	Program:	/corina/corina34_cracker 3.40 0067  02.08.2006

@<TRIPOS>MOLECULE
ASD07931862
  34   35    0    0    0
SMALL
NO_CHARGES


@<TRIPOS>ATOM
   1 C1            -0.0187     1.5258     0.0104 C.3     
   2 C2             0.0021    -0.0041     0.0020 C.3     
   3 O3            -0.0368     1.5827     2.4554 O.3     
   4 C4            -0.7348     2.0192     1.2692 C.3     
   5 C5            -0.6732     3.5652     1.3617 C.3     
   6 C6            -0.8329     3.8057     2.8826 C.3     
   7 C7            -0.4309     2.4623     3.5218 C.3     
   8 C8             0.7237     2.6701     4.4678 C.ar    
   9 C9             0.4973     2.7406     5.8296 C.ar    
  10 C10            1.5563     2.9312     6.6974 C.ar    
  11 C11            2.8418     3.0509     6.2033 C.ar    
  12 C12            3.0683     2.9795     4.8415 C.ar    
  13 C13            2.0098     2.7845     3.9740 C.ar    
  14 C14            3.9962     3.2597     7.1492 C.3     
  15 F15            4.5116     2.0183     7.5371 F       
  16 F16            4.9957     4.0001     6.5089 F       
  17 F17            3.5530     3.9545     8.2797 F       
  18 N18            1.3595     2.0342     0.0000 N.3     
  19 H19           -0.5459     1.8868    -0.8726 H       
  20 H20           -1.0205    -0.3814     0.0098 H       
  21 H21            0.5123    -0.3556    -0.8948 H       
  22 H22            0.5293    -0.3651     0.8851 H       
  23 H23           -1.7688     1.6747     1.2838 H       
  24 H24            0.2880     3.9380     1.0077 H       
  25 H25           -1.4937     4.0210     0.8075 H       
  26 H26           -0.1660     4.6011     3.2152 H       
  27 H27           -1.8678     4.0484     3.1239 H       
  28 H28           -1.2800     2.0380     4.0576 H       
  29 H29           -0.5070     2.6471     6.2156 H       
  30 H30            1.3794     2.9870     7.7613 H       
  31 H31            4.0725     3.0733     4.4554 H       
  32 H32            2.1871     2.7251     2.9104 H       
  33 H33            1.8499     1.7668     0.8403 H       
  34 H34            1.8539     1.7219    -0.8222 H       
@<TRIPOS>BOND
   1    1    2 1
   2    1   18 1
   3    1    4 1
   4    1   19 1
   5    2   20 1
   6    2   21 1
   7    2   22 1
   8    3    7 1
   9    3    4 1
  10    4    5 1
  11    4   23 1
  12    5    6 1
  13    5   24 1
  14    5   25 1
  15    6    7 1
  16    6   26 1
  17    6   27 1
  18    7    8 1
  19    7   28 1
  20    8    9 ar
  21    8   13 ar
  22    9   10 ar
  23    9   29 1
  24   10   11 ar
  25   10   30 1
  26   11   12 ar
  27   11   14 1
  28   12   13 ar
  29   12   31 1
  30   13   32 1
  31   14   15 1
  32   14   16 1
  33   14   17 1
  34   18   33 1
  35   18   34 1

#	End of record

