#	Name: ASD01911987
#	Creating user name:	WinNT
#	Creation time:	15. 06. 2019 19:58

#	Modifying user name:	WinNT
#	Modification time:	15. 06. 2019 19:58

#	Program:	/corina/corina34_cracker 3.40 0067  02.08.2006

@<TRIPOS>MOLECULE
ASD01911987
  39   41    0    0    0
SMALL
NO_CHARGES


@<TRIPOS>ATOM
   1 C1            -1.8739     1.3310     1.1818 C.ar    
   2 C2            -1.8105    -0.0600     1.1460 C.ar    
   3 C3            -2.3664    -0.7727     2.2059 C.ar    
   4 N4            -2.9300    -0.1076     3.2004 N.ar    
   5 C5            -2.9697     1.2097     3.1970 C.ar    
   6 N6            -2.4553     1.9202     2.2133 N.ar    
   7 N7            -1.2056    -0.7231     0.0747 N.pl3   
   8 C8            -1.0658    -2.1142     0.1026 C.ar    
   9 C9             0.3303    -4.0640    -0.0145 C.ar    
  10 C10           -0.7797    -4.8713     0.1567 C.ar    
  11 C11           -2.0406    -4.3009     0.2961 C.ar    
  12 C12           -2.1827    -2.9211     0.2689 C.ar    
  13 N13           -3.1640    -5.1177     0.4689 N.am    
  14 C14           -4.3852    -4.6666     0.1201 C.2     
  15 C15           -5.5856    -5.4743     0.4228 C.ar    
  16 O16           -4.4995    -3.5955    -0.4434 O.2     
  17 C17           -6.8517    -5.0101     0.0629 C.ar    
  18 C18            0.1906    -2.6896    -0.0419 C.ar    
  19 C19           -0.7180     0.0391    -1.0774 C.3     
  20 C20           -7.9684    -5.7688     0.3477 C.ar    
  21 C21           -7.8357    -6.9874     0.9885 C.ar    
  22 C22           -6.5828    -7.4540     1.3489 C.ar    
  23 C23           -5.4573    -6.7073     1.0646 C.ar    
  24 Br24          -6.4129    -9.1208     2.2258 Br      
  25 F25           -0.6399    -6.2148     0.1830 F       
  26 H26           -1.4506     1.9197     0.3813 H       
  27 H27           -2.3378    -1.8523     2.2152 H       
  28 H28           -3.4378     1.7221     4.0245 H       
  29 H29            1.3087    -4.5086    -0.1223 H       
  30 H30           -3.1606    -2.4757     0.3773 H       
  31 H31           -3.0636    -6.0083     0.8398 H       
  32 H32           -6.9571    -4.0586    -0.4372 H       
  33 H33            1.0591    -2.0618    -0.1761 H       
  34 H34            0.3190     0.3294    -0.9085 H       
  35 H35           -0.7813    -0.5774    -1.9741 H       
  36 H36           -1.3289     0.9325    -1.2068 H       
  37 H37           -8.9485    -5.4101     0.0698 H       
  38 H38           -8.7131    -7.5772     1.2091 H       
  39 H39           -4.4804    -7.0721     1.3457 H       
@<TRIPOS>BOND
   1    1    2 ar
   2    1    6 ar
   3    1   26 1
   4    2    3 ar
   5    2    7 1
   6    3    4 ar
   7    3   27 1
   8    4    5 ar
   9    5    6 ar
  10    5   28 1
  11    7    8 1
  12    7   19 1
  13    8   18 ar
  14    8   12 ar
  15    9   10 ar
  16    9   18 ar
  17    9   29 1
  18   10   11 ar
  19   10   25 1
  20   11   12 ar
  21   11   13 1
  22   12   30 1
  23   13   14 am
  24   13   31 1
  25   14   15 1
  26   14   16 2
  27   15   17 ar
  28   15   23 ar
  29   17   20 ar
  30   17   32 1
  31   18   33 1
  32   19   34 1
  33   19   35 1
  34   19   36 1
  35   20   21 ar
  36   20   37 1
  37   21   22 ar
  38   21   38 1
  39   22   23 ar
  40   22   24 1
  41   23   39 1

#	End of record

