#	Name: ASD04840049
#	Creating user name:	WinNT
#	Creation time:	15. 06. 2019 20:52

#	Modifying user name:	WinNT
#	Modification time:	15. 06. 2019 20:52

#	Program:	/corina/corina34_cracker 3.40 0067  02.08.2006

@<TRIPOS>MOLECULE
ASD04840049
  35   36    0    0    0
SMALL
NO_CHARGES


@<TRIPOS>ATOM
   1 C1            -0.0158     1.3135     0.0093 C.ar    
   2 N2             0.0021    -0.0041     0.0020 N.ar    
   3 C3             1.1378    -0.6816    -0.0124 C.ar    
   4 C4             2.3699    -0.0042    -0.0205 C.ar    
   5 C5             2.3742     1.3935    -0.0138 C.ar    
   6 C6             1.1574     2.0500     0.0020 C.ar    
   7 N7             1.4447    -2.0293    -0.0226 N.pl3   
   8 C8             2.8065    -2.1381    -0.0362 C.2     
   9 N9             3.3483    -0.9456    -0.0349 N.2     
  10 N10            3.5063    -3.3261    -0.0488 N.pl3   
  11 C11            4.9711    -3.3133    -0.0627 C.3     
  12 C12            5.4936    -4.7512    -0.0749 C.3     
  13 P13            4.9077    -5.6233     1.4149 P.3     
  14 O14            3.4279    -5.6363     1.4289 O.2     
  15 O15            5.4576    -7.1365     1.4020 O.3     
  16 O16            5.4503    -4.8663     2.7281 O.3     
  17 P17            4.8793    -5.6084    -1.5619 P.3     
  18 O18            3.3994    -5.6214    -1.5478 O.2     
  19 O19            5.3967    -4.8382    -2.8776 O.3     
  20 O20            5.4291    -7.1216    -1.5747 O.3     
  21 C21            0.4861    -3.1371    -0.0194 C.3     
  22 H22           -0.9644     1.8297     0.0165 H       
  23 H23            3.3025     1.9455    -0.0193 H       
  24 H24            1.1218     3.1294     0.0076 H       
  25 H25            3.0286    -4.1703    -0.0485 H       
  26 H26            5.3215    -2.7918    -0.9535 H       
  27 H27            5.3385    -2.8007     0.8263 H       
  28 H28            6.5835    -4.7417    -0.0853 H       
  29 H29            5.1841    -7.6608     2.1671 H       
  30 H30            6.4145    -4.8200     2.7852 H       
  31 H31            5.1028    -3.9189    -2.9364 H       
  32 H32            5.1556    -7.6459    -0.8097 H       
  33 H33            0.2389    -3.4067    -1.0462 H       
  34 H34            0.9260    -3.9968     0.4860 H       
  35 H35           -0.4199    -2.8322     0.5043 H       
@<TRIPOS>BOND
   1    1    2 ar
   2    1    6 ar
   3    1   22 1
   4    2    3 ar
   5    3    4 ar
   6    3    7 1
   7    4    5 ar
   8    4    9 1
   9    5    6 ar
  10    5   23 1
  11    6   24 1
  12    7    8 1
  13    7   21 1
  14    8    9 2
  15    8   10 1
  16   10   11 1
  17   10   25 1
  18   11   12 1
  19   11   26 1
  20   11   27 1
  21   12   13 1
  22   12   17 1
  23   12   28 1
  24   13   14 2
  25   13   15 1
  26   13   16 1
  27   15   29 1
  28   16   30 1
  29   17   18 2
  30   17   19 1
  31   17   20 1
  32   19   31 1
  33   20   32 1
  34   21   33 1
  35   21   34 1
  36   21   35 1

#	End of record

