#	Name: ASD01230152
#	Creating user name:	WinNT
#	Creation time:	15. 06. 2019 19:11

#	Modifying user name:	WinNT
#	Modification time:	15. 06. 2019 19:11

#	Program:	/corina/corina34_cracker 3.40 0067  02.08.2006

@<TRIPOS>MOLECULE
ASD01230152
  41   44    0    0    0
SMALL
NO_CHARGES


@<TRIPOS>ATOM
   1 S1             0.0796     1.7749     1.3208 S.o2    
   2 N2            -0.1047     0.2590     0.6835 N.am    
   3 C3             0.6428    -0.1824    -0.2989 C.2     
   4 N4             1.6408     0.5190    -0.9133 N.pl3   
   5 C5             1.9774     1.9098    -0.5980 C.3     
   6 C6             1.8041     2.1794     0.8996 C.3     
   7 C7             0.3593    -1.5587    -0.7586 C.2     
   8 C8             1.1313    -2.1034    -1.7616 C.2     
   9 C9             2.1622    -1.3345    -2.3191 C.2     
  10 C10            2.3908    -0.0799    -1.8948 C.2     
  11 C11           -0.7395    -2.3417    -0.1488 C.ar    
  12 C12           -0.4542    -3.4970     0.5799 C.ar    
  13 C13           -1.4799    -4.2236     1.1463 C.ar    
  14 C14           -2.7957    -3.8069     0.9923 C.ar    
  15 C15           -3.0833    -2.6577     0.2678 C.ar    
  16 C16           -2.0623    -1.9229    -0.2965 C.ar    
  17 O17           -3.8041    -4.5257     1.5515 O.3     
  18 C18           -4.3858    -5.4985     0.8021 C.ar    
  19 C19           -3.8778    -5.8072    -0.4517 C.ar    
  20 C20           -4.4711    -6.7966    -1.2115 C.ar    
  21 C21           -5.5703    -7.4790    -0.7237 C.ar    
  22 C22           -6.0785    -7.1734     0.5254 C.ar    
  23 C23           -5.4855    -6.1889     1.2917 C.ar    
  24 O24           -0.8236     2.5857     0.5818 O.2     
  25 O25           -0.0682     1.5939     2.7224 O.2     
  26 H26            3.0125     2.1020    -0.8804 H       
  27 H27            1.3224     2.5747    -1.1611 H       
  28 H28            2.0021     3.2298     1.1132 H       
  29 H29            2.4841     1.5484     1.4718 H       
  30 H30            0.9450    -3.1077    -2.1127 H       
  31 H31            2.7801    -1.7553    -3.0985 H       
  32 H32            3.1977     0.4798    -2.3442 H       
  33 H33            0.5688    -3.8218     0.6997 H       
  34 H34           -1.2599    -5.1181     1.7101 H       
  35 H35           -4.1078    -2.3368     0.1498 H       
  36 H36           -2.2864    -1.0265    -0.8558 H       
  37 H37           -3.0195    -5.2742    -0.8333 H       
  38 H38           -4.0763    -7.0370    -2.1876 H       
  39 H39           -6.0329    -8.2520    -1.3195 H       
  40 H40           -6.9371    -7.7080     0.9041 H       
  41 H41           -5.8798    -5.9539     2.2693 H       
@<TRIPOS>BOND
   1    1    2 am
   2    1    6 1
   3    1   24 2
   4    1   25 2
   5    2    3 2
   6    3    4 1
   7    3    7 1
   8    4    5 1
   9    4   10 1
  10    5    6 1
  11    5   26 1
  12    5   27 1
  13    6   28 1
  14    6   29 1
  15    7    8 2
  16    7   11 1
  17    8    9 1
  18    8   30 1
  19    9   10 2
  20    9   31 1
  21   10   32 1
  22   11   12 ar
  23   11   16 ar
  24   12   13 ar
  25   12   33 1
  26   13   14 ar
  27   13   34 1
  28   14   15 ar
  29   14   17 1
  30   15   16 ar
  31   15   35 1
  32   16   36 1
  33   17   18 1
  34   18   19 ar
  35   18   23 ar
  36   19   20 ar
  37   19   37 1
  38   20   21 ar
  39   20   38 1
  40   21   22 ar
  41   21   39 1
  42   22   23 ar
  43   22   40 1
  44   23   41 1

#	End of record

