#	Name: ASD01884670
#	Creating user name:	WinNT
#	Creation time:	15. 06. 2019 19:48

#	Modifying user name:	WinNT
#	Modification time:	15. 06. 2019 19:48

#	Program:	/corina/corina34_cracker 3.40 0067  02.08.2006

@<TRIPOS>MOLECULE
ASD01884670
  50   52    0    0    0
SMALL
NO_CHARGES


@<TRIPOS>ATOM
   1 C1            -0.0168     1.3884     0.0097 C.2     
   2 C2             0.0021    -0.0041     0.0020 C.2     
   3 C3            -1.2095    -0.6965     0.0104 C.2     
   4 C4            -2.3831    -0.0157     0.0252 C.2     
   5 N5            -2.4093     1.3392     0.0327 N.am    
   6 C6            -1.2693     2.0558     0.0312 C.2     
   7 O7            -1.3129     3.2741     0.0383 O.2     
   8 C8            -3.6983     2.0352     0.0483 C.3     
   9 C9             1.2059     2.1337     0.0020 C.1     
  10 N10            2.1759     2.7249    -0.0041 N.1     
  11 C11            1.3105    -0.7515    -0.0155 C.3     
  12 C12           -4.1338     2.2698     1.4962 C.3     
  13 C13           -5.4800     2.9967     1.5124 C.3     
  14 C14           -6.5555     2.0919     0.9078 C.3     
  15 C15           -5.8558     3.3419     2.9548 C.3     
  16 N16            1.6901    -1.1066     1.3585 N.3     
  17 C17            0.7454    -2.0703     1.9322 C.3     
  18 C18            1.1992    -2.5022     3.3019 C.ar    
  19 C19            2.4941    -2.3101     3.7334 C.ar    
  20 C20            3.5293    -1.6493     2.8598 C.3     
  21 C21            3.0587    -1.6453     1.4051 C.3     
  22 C22            0.2773    -3.1100     4.1419 C.ar    
  23 C23            0.6504    -3.5242     5.4044 C.ar    
  24 C24            1.9501    -3.3333     5.8357 C.ar    
  25 C25            2.8684    -2.7283     5.0015 C.ar    
  26 H26           -1.2130    -1.7765     0.0046 H       
  27 H27           -3.3137    -0.5638     0.0308 H       
  28 H28           -3.5999     2.9937    -0.4613 H       
  29 H29           -4.4456     1.4275    -0.4619 H       
  30 H30            1.2023    -1.6595    -0.6087 H       
  31 H31            2.0835    -0.1207    -0.4544 H       
  32 H32           -4.2323     1.3113     2.0058 H       
  33 H33           -3.3866     2.8775     2.0064 H       
  34 H34           -5.4052     3.9132     0.9272 H       
  35 H35           -6.6304     1.1754     1.4930 H       
  36 H36           -7.5146     2.6098     0.9194 H       
  37 H37           -6.2878     1.8460    -0.1198 H       
  38 H38           -5.0896     3.9865     3.3856 H       
  39 H39           -6.8149     3.8597     2.9664 H       
  40 H40           -5.9307     2.4254     3.5401 H       
  41 H41           -0.2386    -1.6077     2.0084 H       
  42 H42            0.6827    -2.9431     1.2822 H       
  43 H43            3.6826    -0.6230     3.1934 H       
  44 H44            4.4689    -2.1967     2.9346 H       
  45 H45            3.0651    -2.6632     1.0153 H       
  46 H46            3.7199    -1.0173     0.8080 H       
  47 H47           -0.7381    -3.2595     3.8059 H       
  48 H48           -0.0716    -3.9962     6.0543 H       
  49 H49            2.2459    -3.6564     6.8229 H       
  50 H50            3.8837    -2.5794     5.3384 H       
@<TRIPOS>BOND
   1    1    2 2
   2    1    9 1
   3    1    6 1
   4    2    3 1
   5    2   11 1
   6    3    4 2
   7    3   26 1
   8    4    5 1
   9    4   27 1
  10    5    8 1
  11    5    6 am
  12    6    7 2
  13    8   12 1
  14    8   28 1
  15    8   29 1
  16    9   10 3
  17   11   16 1
  18   11   30 1
  19   11   31 1
  20   12   13 1
  21   12   32 1
  22   12   33 1
  23   13   14 1
  24   13   15 1
  25   13   34 1
  26   14   35 1
  27   14   36 1
  28   14   37 1
  29   15   38 1
  30   15   39 1
  31   15   40 1
  32   16   17 1
  33   16   21 1
  34   17   18 1
  35   17   41 1
  36   17   42 1
  37   18   19 ar
  38   18   22 ar
  39   19   20 1
  40   19   25 ar
  41   20   21 1
  42   20   43 1
  43   20   44 1
  44   21   45 1
  45   21   46 1
  46   22   23 ar
  47   22   47 1
  48   23   24 ar
  49   23   48 1
  50   24   25 ar
  51   24   49 1
  52   25   50 1

#	End of record

