#	Name: ASD03430954
#	Creating user name:	WinNT
#	Creation time:	15. 06. 2019 20:41

#	Modifying user name:	WinNT
#	Modification time:	15. 06. 2019 20:41

#	Program:	/corina/corina34_cracker 3.40 0067  02.08.2006

@<TRIPOS>MOLECULE
ASD03430954
  36   40    0    0    0
SMALL
NO_CHARGES


@<TRIPOS>ATOM
   1 O1            -0.0174     1.4356     0.0099 O.3     
   2 C2             0.0021    -0.0041     0.0020 C.3     
   3 O3             1.2456    -0.3258    -0.6483 O.3     
   4 C4             2.0710     0.7342    -0.4037 C.ar    
   5 C5             1.2936     1.8175    -0.0005 C.ar    
   6 C6             3.4453     0.8640    -0.4923 C.ar    
   7 C7             4.0608     2.0732    -0.1831 C.ar    
   8 C8             3.2729     3.1510     0.2094 C.ar    
   9 C9             1.9029     3.0230     0.3044 C.ar    
  10 O10            5.3839     2.4042    -0.1876 O.3     
  11 C11            4.2107     4.3052     0.4426 C.3     
  12 C12            5.5146     3.8385    -0.2190 C.3     
  13 N13            3.6169     6.4761     0.8425 N.am    
  14 C14            3.7024     5.5821    -0.1627 C.2     
  15 C15            4.3985     4.6035     1.9005 C.ar    
  16 C16            4.8354     3.8608     2.9755 C.ar    
  17 C17            4.8994     4.4348     4.2345 C.ar    
  18 C18            4.5246     5.7539     4.4086 C.ar    
  19 C19            4.0872     6.5017     3.3346 C.ar    
  20 C20            4.0190     5.9333     2.0653 C.ar    
  21 O21            3.4237     5.7718    -1.3278 O.2     
  22 C22            3.1559     7.8562     0.6724 C.3     
  23 N23            0.5723     7.9581     1.0140 N.1     
  24 C24            1.6977     7.9138     0.8652 C.1     
  25 Cl25           5.3053     2.2046     2.7522 Cl      
  26 H26           -0.0094    -0.3928     1.0203 H       
  27 H27           -0.8406    -0.3954    -0.5679 H       
  28 H28            4.0447     0.0211    -0.8032 H       
  29 H29            1.3038     3.8652     0.6179 H       
  30 H30            6.3797     4.1612     0.3603 H       
  31 H31            5.5785     4.1991    -1.2456 H       
  32 H32            5.2410     3.8532     5.0779 H       
  33 H33            4.5739     6.2014     5.3903 H       
  34 H34            3.7959     7.5316     3.4792 H       
  35 H35            3.6450     8.4958     1.4071 H       
  36 H36            3.4035     8.2009    -0.3315 H       
@<TRIPOS>BOND
   1    1    2 1
   2    1    5 1
   3    2    3 1
   4    2   26 1
   5    2   27 1
   6    3    4 1
   7    4    5 ar
   8    4    6 ar
   9    5    9 ar
  10    6    7 ar
  11    6   28 1
  12    7    8 ar
  13    7   10 1
  14    8    9 ar
  15    8   11 1
  16    9   29 1
  17   10   12 1
  18   11   12 1
  19   11   14 1
  20   11   15 1
  21   12   30 1
  22   12   31 1
  23   13   14 am
  24   13   20 1
  25   13   22 1
  26   14   21 2
  27   15   16 ar
  28   15   20 ar
  29   16   17 ar
  30   16   25 1
  31   17   18 ar
  32   17   32 1
  33   18   19 ar
  34   18   33 1
  35   19   20 ar
  36   19   34 1
  37   22   24 1
  38   22   35 1
  39   22   36 1
  40   23   24 3

#	End of record

