#	Name: ASD01001188
#	Creating user name:	WinNT
#	Creation time:	15. 06. 2019 18:55

#	Modifying user name:	WinNT
#	Modification time:	15. 06. 2019 18:55

#	Program:	/corina/corina34_cracker 3.40 0067  02.08.2006

@<TRIPOS>MOLECULE
ASD01001188
  52   55    0    0    0
SMALL
NO_CHARGES


@<TRIPOS>ATOM
   1 C1            -0.0163     1.3478     0.0095 C.2     
   2 C2             1.2849     2.1081     0.0011 C.3     
   3 C3             1.4136     2.9027    -1.3015 C.3     
   4 N4             1.3080     3.0688     1.1137 N.pl3   
   5 C5             1.2702     1.9726    -2.5032 C.3     
   6 C6             2.7675     3.6078    -1.3275 C.3     
   7 C7             2.2418     4.1107     1.0904 C.ar    
   8 C8             2.4529     1.0004    -2.5435 C.3     
   9 C9             2.9580     4.4032    -0.0599 C.ar    
  10 O10            3.8184     2.6432    -1.4239 O.3     
  11 C11            2.4469     4.8596     2.2443 C.ar    
  12 C12            3.7540     1.8081    -2.5803 C.3     
  13 C13            3.8704     5.4437    -0.0537 C.ar    
  14 C14            3.3600     5.8951     2.2431 C.ar    
  15 C15            4.0708     6.1873     1.0937 C.ar    
  16 C16            5.0661     7.3188     1.0923 C.3     
  17 C17            4.6571     8.3565     0.0450 C.3     
  18 C18            5.0958     7.9737     2.4747 C.3     
  19 C19            6.4561     6.7750     0.7556 C.3     
  20 C20            0.0021    -0.0041     0.0020 C.2     
  21 C21           -1.1627    -0.7953     0.0093 C.2     
  22 C22           -2.3877    -0.2566     0.0240 C.2     
  23 C23           -2.5174     1.2518     0.0333 C.3     
  24 C24           -1.2327     2.0553     0.0307 C.2     
  25 S25           -1.2602     3.7671     0.0407 S.2     
  26 Cl26          -3.7994    -1.2668     0.0314 Cl      
  27 H27            2.1195     1.4132     0.0942 H       
  28 H28            0.6304     3.6598    -1.3386 H       
  29 H29            0.6854     2.9819     1.8524 H       
  30 H30            0.3405     1.4100    -2.4179 H       
  31 H31            1.2542     2.5630    -3.4193 H       
  32 H32            2.8114     4.2776    -2.1863 H       
  33 H33            2.4388     0.3706    -1.6539 H       
  34 H34            2.3840     0.3778    -3.4356 H       
  35 H35            1.8912     4.6311     3.1418 H       
  36 H36            4.6054     1.1276    -2.5862 H       
  37 H37            3.7739     2.4263    -3.4778 H       
  38 H38            4.4282     5.6753    -0.9491 H       
  39 H39            3.5186     6.4767     3.1391 H       
  40 H40            3.6669     8.7439     0.2849 H       
  41 H41            5.3770     9.1749     0.0440 H       
  42 H42            4.6360     7.8900    -0.9398 H       
  43 H43            5.3872     7.2344     3.2208 H       
  44 H44            5.8157     8.7921     2.4737 H       
  45 H45            4.1056     8.3611     2.7146 H       
  46 H46            6.4349     6.3084    -0.2293 H       
  47 H47            7.1760     7.5934     0.7546 H       
  48 H48            6.7475     6.0357     1.5017 H       
  49 H49            0.9598    -0.5030    -0.0105 H       
  50 H50           -1.0645    -1.8708     0.0026 H       
  51 H51           -3.1009     1.5436    -0.8398 H       
  52 H52           -3.0841     1.5341     0.9206 H       
@<TRIPOS>BOND
   1    1   20 2
   2    1    2 1
   3    1   24 1
   4    2    3 1
   5    2    4 1
   6    2   27 1
   7    3    5 1
   8    3    6 1
   9    3   28 1
  10    4    7 1
  11    4   29 1
  12    5    8 1
  13    5   30 1
  14    5   31 1
  15    6    9 1
  16    6   10 1
  17    6   32 1
  18    7    9 ar
  19    7   11 ar
  20    8   12 1
  21    8   33 1
  22    8   34 1
  23    9   13 ar
  24   10   12 1
  25   11   14 ar
  26   11   35 1
  27   12   36 1
  28   12   37 1
  29   13   15 ar
  30   13   38 1
  31   14   15 ar
  32   14   39 1
  33   15   16 1
  34   16   17 1
  35   16   18 1
  36   16   19 1
  37   17   40 1
  38   17   41 1
  39   17   42 1
  40   18   43 1
  41   18   44 1
  42   18   45 1
  43   19   46 1
  44   19   47 1
  45   19   48 1
  46   20   21 1
  47   20   49 1
  48   21   22 2
  49   21   50 1
  50   22   23 1
  51   22   26 1
  52   23   24 1
  53   23   51 1
  54   23   52 1
  55   24   25 2

#	End of record

