#	Name: ASD03240199
#	Creating user name:	WinNT
#	Creation time:	15. 06. 2019 20:34

#	Modifying user name:	WinNT
#	Modification time:	15. 06. 2019 20:34

#	Program:	/corina/corina34_cracker 3.40 0067  02.08.2006

@<TRIPOS>MOLECULE
ASD03240199
  53   57    0    0    0
SMALL
NO_CHARGES


@<TRIPOS>ATOM
   1 C1            -0.0167     1.3831     0.0096 C.ar    
   2 C2             0.0021    -0.0041     0.0020 C.ar    
   3 C3            -1.1840    -0.7109     0.0095 C.ar    
   4 C4            -2.3957    -0.0332     0.0248 C.ar    
   5 C5            -2.4139     1.3551     0.0324 C.ar    
   6 C6            -1.2270     2.0608     0.0306 C.ar    
   7 N7            -3.6007    -0.7506     0.0319 N.pl3   
   8 C8            -3.9120    -1.7669    -0.8312 C.2     
   9 C9            -5.1509    -2.2410    -0.5487 C.2     
  10 C10           -5.6518    -1.4533     0.5851 C.ar    
  11 C11           -4.6338    -0.5390     0.9079 C.ar    
  12 C12           -6.8331    -1.4398     1.3383 C.ar    
  13 N13           -6.9422    -0.5557     2.3264 N.ar    
  14 C14           -5.9634     0.2897     2.5935 C.ar    
  15 N15           -4.8353     0.3072     1.9169 N.ar    
  16 N16           -7.8607    -2.3237     1.0611 N.pl3   
  17 C17           -9.0882    -2.2938     1.8603 C.3     
  18 C18           -5.8605    -3.3386    -1.2477 C.ar    
  19 C19           -5.9563    -3.3360    -2.6387 C.ar    
  20 C20           -6.4299    -4.3808    -0.5172 C.ar    
  21 C21           -7.0893    -5.3999    -1.1735 C.ar    
  22 C22           -7.1861    -5.3890    -2.5534 C.ar    
  23 C23           -6.6182    -4.3606    -3.2839 C.ar    
  24 C24          -10.2628    -2.8607     1.0437 C.3     
  25 C25          -10.7818    -4.0919     1.8147 C.3     
  26 C26          -10.3330    -3.8420     3.2759 C.3     
  27 C27           -8.9345    -3.2003     3.0989 C.3     
  28 O28            1.1515     2.0786     0.0022 O.3     
  29 C29            1.0577     3.5045     0.0108 C.3     
  30 H30            0.9446    -0.5312    -0.0102 H       
  31 H31           -1.1693    -1.7908     0.0032 H       
  32 H32           -3.3561     1.8828     0.0439 H       
  33 H33           -1.2411     3.1407     0.0369 H       
  34 H34           -3.2691    -2.1349    -1.6170 H       
  35 H35           -6.0921     0.9915     3.4042 H       
  36 H36           -7.7685    -2.9631     0.3375 H       
  37 H37           -9.3073    -1.2718     2.1695 H       
  38 H38           -5.5136    -2.5335    -3.2100 H       
  39 H39           -6.3547    -4.3906     0.5601 H       
  40 H40           -7.5305    -6.2079    -0.6087 H       
  41 H41           -7.7029    -6.1889    -3.0627 H       
  42 H42           -6.6972    -4.3571    -4.3610 H       
  43 H43          -11.0522    -2.1141     0.9574 H       
  44 H44           -9.9195    -3.1580     0.0528 H       
  45 H45          -11.8686    -4.1497     1.7540 H       
  46 H46          -10.3281    -5.0040     1.4269 H       
  47 H47          -11.0135    -3.1533     3.7766 H       
  48 H48          -10.2604    -4.7816     3.8237 H       
  49 H49           -8.1824    -3.9684     2.9186 H       
  50 H50           -8.6731    -2.6075     3.9755 H       
  51 H51            0.5126     3.8380    -0.8723 H       
  52 H52            0.5296     3.8285     0.9076 H       
  53 H53            2.0592     3.9345     0.0035 H       
@<TRIPOS>BOND
   1    1    2 ar
   2    1   28 1
   3    1    6 ar
   4    2    3 ar
   5    2   30 1
   6    3    4 ar
   7    3   31 1
   8    4    5 ar
   9    4    7 1
  10    5    6 ar
  11    5   32 1
  12    6   33 1
  13    7    8 1
  14    7   11 1
  15    8    9 2
  16    8   34 1
  17    9   10 1
  18    9   18 1
  19   10   11 ar
  20   10   12 ar
  21   11   15 ar
  22   12   13 ar
  23   12   16 1
  24   13   14 ar
  25   14   15 ar
  26   14   35 1
  27   16   17 1
  28   16   36 1
  29   17   24 1
  30   17   27 1
  31   17   37 1
  32   18   19 ar
  33   18   20 ar
  34   19   23 ar
  35   19   38 1
  36   20   21 ar
  37   20   39 1
  38   21   22 ar
  39   21   40 1
  40   22   23 ar
  41   22   41 1
  42   23   42 1
  43   24   25 1
  44   24   43 1
  45   24   44 1
  46   25   26 1
  47   25   45 1
  48   25   46 1
  49   26   27 1
  50   26   47 1
  51   26   48 1
  52   27   49 1
  53   27   50 1
  54   28   29 1
  55   29   51 1
  56   29   52 1
  57   29   53 1

#	End of record

