#	Name: ASD04170032
#	Creating user name:	WinNT
#	Creation time:	15. 06. 2019 20:48

#	Modifying user name:	WinNT
#	Modification time:	15. 06. 2019 20:48

#	Program:	/corina/corina34_cracker 3.40 0067  02.08.2006

@<TRIPOS>MOLECULE
ASD04170032
  40   42    0    0    0
SMALL
NO_CHARGES


@<TRIPOS>ATOM
   1 C1            -0.0225     1.8097     0.0120 C.3     
   2 S2             0.0021    -0.0041     0.0020 S.3     
   3 C3             0.8516    -0.3807    -1.4950 C.ar    
   4 C4             1.0691    -1.7085    -1.8557 C.ar    
   5 C5             1.7298    -2.0046    -3.0199 C.ar    
   6 C6             2.1853    -0.9721    -3.8456 C.ar    
   7 C7             1.9655     0.3598    -3.4810 C.ar    
   8 C8             1.2993     0.6498    -2.3185 C.ar    
   9 C9             2.8968    -1.2874    -5.0984 C.2     
  10 O10            3.0877    -2.4460    -5.4141 O.2     
  11 N11            3.3353    -0.2912    -5.8933 N.am    
  12 C12            4.0421    -0.6044    -7.1378 C.3     
  13 C13            3.0268    -0.8502    -8.2561 C.3     
  14 N14            3.2312     0.1139    -9.3398 N.4     
  15 C15            4.5680    -0.0371    -9.9192 C.3     
  16 C16            5.6341     0.2364    -8.8559 C.3     
  17 C17            4.9368     0.5779    -7.5325 C.3     
  18 C18            4.0446     1.8056    -7.7588 C.3     
  19 C19            3.0295     1.4822    -8.8574 C.3     
  20 H20            1.0001     2.1870     0.0043 H       
  21 H21           -0.5497     2.1708    -0.8711 H       
  22 H22           -0.5327     2.1613     0.9088 H       
  23 H23            0.7174    -2.5055    -1.2174 H       
  24 H24            1.8985    -3.0342    -3.2988 H       
  25 H25            2.3165     1.1593    -4.1166 H       
  26 H26            1.1288     1.6783    -2.0365 H       
  27 H27            3.1831     0.6330    -5.6414 H       
  28 H28            4.6529    -1.4960    -6.9965 H       
  29 H29            3.1528    -1.8614    -8.6431 H       
  30 H30            2.0177    -0.7397    -7.8593 H       
  31 H31            2.5486    -0.0665   -10.0607 H       
  32 H32            4.6859    -1.0529   -10.2967 H       
  33 H33            4.6878     0.6686   -10.7413 H       
  34 H34            6.2542    -0.6503    -8.7238 H       
  35 H35            6.2552     1.0757    -9.1688 H       
  36 H36            5.6759     0.7685    -6.7543 H       
  37 H37            3.5186     2.0500    -6.8359 H       
  38 H38            4.6589     2.6518    -8.0666 H       
  39 H39            3.1576     2.1800    -9.6849 H       
  40 H40            2.0203     1.5796    -8.4573 H       
@<TRIPOS>BOND
   1    1    2 1
   2    1   20 1
   3    1   21 1
   4    1   22 1
   5    2    3 1
   6    3    4 ar
   7    3    8 ar
   8    4    5 ar
   9    4   23 1
  10    5    6 ar
  11    5   24 1
  12    6    7 ar
  13    6    9 1
  14    7    8 ar
  15    7   25 1
  16    8   26 1
  17    9   10 2
  18    9   11 am
  19   11   12 1
  20   11   27 1
  21   12   13 1
  22   12   17 1
  23   12   28 1
  24   13   14 1
  25   13   29 1
  26   13   30 1
  27   14   15 1
  28   14   19 1
  29   14   31 1
  30   15   16 1
  31   15   32 1
  32   15   33 1
  33   16   17 1
  34   16   34 1
  35   16   35 1
  36   17   18 1
  37   17   36 1
  38   18   19 1
  39   18   37 1
  40   18   38 1
  41   19   39 1
  42   19   40 1

#	End of record

