#	Name: ASD01910220
#	Creating user name:	WinNT
#	Creation time:	15. 06. 2019 19:55

#	Modifying user name:	WinNT
#	Modification time:	15. 06. 2019 19:55

#	Program:	/corina/corina34_cracker 3.40 0067  02.08.2006

@<TRIPOS>MOLECULE
ASD01910220
  44   47    0    0    0
SMALL
NO_CHARGES


@<TRIPOS>ATOM
   1 C1             0.1444     1.1324    -0.0032 C.2     
   2 C2             1.3509     2.0351    -0.0293 C.3     
   3 C3             1.4500     2.7938     1.2961 C.3     
   4 C4             2.6932     3.6862     1.2833 C.3     
   5 C5             2.5714     4.7085     0.1489 C.3     
   6 N6             2.3306     3.9910    -1.1105 N.am    
   7 C7             1.2139     3.0387    -1.1786 C.3     
   8 C8             3.1192     4.2024    -2.1828 C.2     
   9 C9             4.1551     5.2548    -2.1419 C.ar    
  10 O10            2.9780     3.5271    -3.1838 O.2     
  11 C11            5.4205     5.0139    -2.6814 C.ar    
  12 C12            6.3832     5.9995    -2.6410 C.ar    
  13 C13            6.0971     7.2284    -2.0660 C.ar    
  14 C14            4.8426     7.4727    -1.5286 C.ar    
  15 C15            3.8707     6.4961    -1.5688 C.ar    
  16 N16            0.1453    -0.1711    -0.1303 N.2     
  17 C17           -1.1512    -0.5454    -0.0434 C.2     
  18 N18           -1.8562     0.5425     0.1297 N.2     
  19 O19           -1.1270     1.5112     0.1598 O.3     
  20 C20           -1.6759    -1.9307    -0.1292 C.ar    
  21 C21           -3.0450    -2.1673    -0.0219 C.ar    
  22 C22           -3.5286    -3.4568    -0.1027 C.ar    
  23 C23           -2.6550    -4.5160    -0.2903 C.ar    
  24 C24           -1.2929    -4.2852    -0.3976 C.ar    
  25 C25           -0.8014    -2.9983    -0.3232 C.ar    
  26 F26            7.0444     8.1910    -2.0290 F       
  27 H27            2.2502     1.4363    -0.1739 H       
  28 F28           -3.1327    -5.7773    -0.3684 F       
  29 H29            0.5614     3.4109     1.4285 H       
  30 H30            1.5229     2.0813     2.1178 H       
  31 H31            2.7760     4.2085     2.2364 H       
  32 H32            3.5801     3.0723     1.1261 H       
  33 H33            1.7380     5.3813     0.3512 H       
  34 H34            3.4957     5.2811     0.0722 H       
  35 H35            1.2425     2.5095    -2.1311 H       
  36 H36            0.2698     3.5753    -1.0845 H       
  37 H37            5.6444     4.0569    -3.1291 H       
  38 H38            7.3622     5.8141    -3.0575 H       
  39 H39            4.6251     8.4316    -1.0816 H       
  40 H40            2.8937     6.6876    -1.1502 H       
  41 H41           -3.7265    -1.3424     0.1247 H       
  42 H42           -4.5894    -3.6411    -0.0192 H       
  43 H43           -0.6155    -5.1135    -0.5437 H       
  44 H44            0.2604    -2.8192    -0.4069 H       
@<TRIPOS>BOND
   1    1   16 2
   2    1    2 1
   3    1   19 1
   4    2    3 1
   5    2   27 1
   6    2    7 1
   7    3    4 1
   8    3   29 1
   9    3   30 1
  10    4    5 1
  11    4   31 1
  12    4   32 1
  13    5    6 1
  14    5   33 1
  15    5   34 1
  16    6    7 1
  17    6    8 am
  18    7   35 1
  19    7   36 1
  20    8    9 1
  21    8   10 2
  22    9   11 ar
  23    9   15 ar
  24   11   12 ar
  25   11   37 1
  26   12   13 ar
  27   12   38 1
  28   13   14 ar
  29   13   26 1
  30   14   15 ar
  31   14   39 1
  32   15   40 1
  33   16   17 1
  34   17   18 2
  35   17   20 1
  36   18   19 1
  37   20   21 ar
  38   20   25 ar
  39   21   22 ar
  40   21   41 1
  41   22   23 ar
  42   22   42 1
  43   23   24 ar
  44   23   28 1
  45   24   25 ar
  46   24   43 1
  47   25   44 1

#	End of record

