#	Name: ASD01940365
#	Creating user name:	WinNT
#	Creation time:	15. 06. 2019 20:12

#	Modifying user name:	WinNT
#	Modification time:	15. 06. 2019 20:12

#	Program:	/corina/corina34_cracker 3.40 0067  02.08.2006

@<TRIPOS>MOLECULE
ASD01940365
  54   57    0    0    0
SMALL
NO_CHARGES


@<TRIPOS>ATOM
   1 C1             2.7319     6.1433    -4.5157 C.3     
   2 C2             3.3764     5.6623    -5.8173 C.3     
   3 C3             3.1723     7.1587    -5.5721 C.3     
   4 S4             0.9509     5.8668    -4.3108 S.o2    
   5 O5             0.2182     6.5886    -5.2914 O.2     
   6 O6             0.6849     4.4934    -4.0613 O.2     
   7 N7             0.5770     6.6209    -2.8847 N.am    
   8 C8             0.8006     7.9966    -2.7399 C.ar    
   9 C9             1.2105     8.5121    -1.5109 C.ar    
  10 C10            1.4305     9.8758    -1.3731 C.ar    
  11 C11            1.2423    10.7199    -2.4564 C.ar    
  12 C12            0.8350    10.2057    -3.6751 C.ar    
  13 C13            0.6202     8.8470    -3.8199 C.ar    
  14 N14            1.3994     7.6559    -0.4175 N.pl3   
  15 C15            1.3973     9.1926     3.4578 C.ar    
  16 C16            0.2032     9.1032     2.7430 C.ar    
  17 C17            0.2050     8.5941     1.4605 C.ar    
  18 C18            1.3985     8.1706     0.8810 C.ar    
  19 C19            2.5882     8.2592     1.5932 C.ar    
  20 C20            2.5899     8.7675     2.8753 C.ar    
  21 C21            1.3990     9.7452     4.8345 C.ar    
  22 C22            2.5908     9.8349     5.5494 C.ar    
  23 C23            2.5855    10.3524     6.8359 C.ar    
  24 C24            1.3925    10.7796     7.4078 C.ar    
  25 C25            0.2106    10.6896     6.6977 C.ar    
  26 C26            0.2085    10.1812     5.4139 C.ar    
  27 S27            4.0757     9.3937     8.8024 S.o2    
  28 O28            5.3521     9.7823     9.2913 O.2     
  29 O29            2.9184     9.4850     9.6219 O.2     
  30 N30            3.7782    10.4441     7.5572 N.am    
  31 C31            4.1668     7.7651     8.0088 C.3     
  32 F32           -0.9509     8.5069     0.7668 F       
  33 F33            1.4565    12.0470    -2.3222 F       
  34 F34            1.8273    10.3799    -0.1842 F       
  35 H35            3.3263     6.0751    -3.6045 H       
  36 H36            4.3948     5.2777    -5.7625 H       
  37 H37            2.7302     5.1798    -6.5505 H       
  38 H38            2.3919     7.6606    -6.1440 H       
  39 H39            4.0565     7.7585    -5.3559 H       
  40 H40            0.2032     6.1103    -2.1495 H       
  41 H41            0.6888    10.8667    -4.5166 H       
  42 H42            0.3074     8.4488    -4.7738 H       
  43 H43            1.5307     6.7058    -0.5625 H       
  44 H44           -0.7220     9.4317     3.1928 H       
  45 H45            3.5126     7.9299     1.1422 H       
  46 H46            3.5153     8.8365     3.4277 H       
  47 H47            3.5164     9.5022     5.1033 H       
  48 H48            1.3895    11.1824     8.4098 H       
  49 H49           -0.7137    11.0224     7.1464 H       
  50 H50           -0.7165    10.1170     4.8602 H       
  51 H51            4.4323    11.1230     7.3286 H       
  52 H52            4.4109     7.0100     8.7560 H       
  53 H53            3.2051     7.5284     7.5537 H       
  54 H54            4.9393     7.7783     7.2399 H       
@<TRIPOS>BOND
   1    1    2 1
   2    1    3 1
   3    1    4 1
   4    1   35 1
   5    2    3 1
   6    2   36 1
   7    2   37 1
   8    3   38 1
   9    3   39 1
  10    4    5 2
  11    4    6 2
  12    4    7 am
  13    7    8 1
  14    7   40 1
  15    8    9 ar
  16    8   13 ar
  17    9   10 ar
  18    9   14 1
  19   10   11 ar
  20   10   34 1
  21   11   12 ar
  22   11   33 1
  23   12   13 ar
  24   12   41 1
  25   13   42 1
  26   14   18 1
  27   14   43 1
  28   15   16 ar
  29   15   20 ar
  30   15   21 1
  31   16   17 ar
  32   16   44 1
  33   17   18 ar
  34   17   32 1
  35   18   19 ar
  36   19   20 ar
  37   19   45 1
  38   20   46 1
  39   21   22 ar
  40   21   26 ar
  41   22   23 ar
  42   22   47 1
  43   23   24 ar
  44   23   30 1
  45   24   25 ar
  46   24   48 1
  47   25   26 ar
  48   25   49 1
  49   26   50 1
  50   27   28 2
  51   27   29 2
  52   27   30 am
  53   27   31 1
  54   30   51 1
  55   31   52 1
  56   31   53 1
  57   31   54 1

#	End of record

