#	Name: ASD01200081
#	Creating user name:	WinNT
#	Creation time:	15. 06. 2019 19:08

#	Modifying user name:	WinNT
#	Modification time:	15. 06. 2019 19:08

#	Program:	/corina/corina34_cracker 3.40 0067  02.08.2006

@<TRIPOS>MOLECULE
ASD01200081
  42   44    0    0    0
SMALL
NO_CHARGES


@<TRIPOS>ATOM
   1 C1             0.4773     1.4876    -1.4662 C.2     
   2 C2             0.3535     0.1666    -0.8147 C.ar    
   3 C3             1.4600    -0.6794    -0.7311 C.ar    
   4 C4             1.3364    -1.9153    -0.1189 C.ar    
   5 C5             0.1141    -2.3102     0.4091 C.ar    
   6 C6            -0.9829    -1.4731     0.3269 C.ar    
   7 C7            -0.8694    -0.2368    -0.2759 C.ar    
   8 O8             1.5446     1.8388    -1.9302 O.2     
   9 N9            -0.5944     2.3005    -1.5506 N.am    
  10 S10            0.9585     4.1639    -2.8500 S.3     
  11 C11           -0.4780     3.5418    -2.1627 C.2     
  12 N12           -1.4428     4.3974    -2.2960 N.2     
  13 C13           -1.1551     5.5322    -2.9057 C.2     
  14 C14            0.1131     5.6406    -3.3065 C.2     
  15 C15           -2.1763     6.6172    -3.1315 C.3     
  16 O16            2.4115    -2.7423    -0.0352 O.3     
  17 C17            3.2271    -2.6211     1.0449 C.ar    
  18 C18            4.3979    -3.3625     1.1185 C.ar    
  19 C19            5.2251    -3.2374     2.2175 C.ar    
  20 C20            4.8872    -2.3747     3.2442 C.ar    
  21 C21            3.7212    -1.6354     3.1735 C.ar    
  22 C22            2.8935    -1.7518     2.0734 C.ar    
  23 S23            4.8286    -4.4627    -0.1886 S.o2    
  24 O24            4.7246    -3.6694    -1.3630 O.2     
  25 O25            6.0743    -5.0151     0.2144 O.2     
  26 C26            3.5310    -5.7300    -0.1596 C.3     
  27 H27            2.4098    -0.3714    -1.1428 H       
  28 H28            0.0203    -3.2749     0.8854 H       
  29 H29           -1.9308    -1.7859     0.7391 H       
  30 H30           -1.7274     0.4165    -0.3345 H       
  31 H31           -1.4470     2.0186    -1.1838 H       
  32 H32            0.5456     6.4858    -3.8212 H       
  33 H33           -2.1734     7.3012    -2.2829 H       
  34 H34           -1.9291     7.1652    -4.0407 H       
  35 H35           -3.1649     6.1699    -3.2343 H       
  36 H36            6.1364    -3.8141     2.2752 H       
  37 H37            5.5352    -2.2787     4.1028 H       
  38 H38            3.4594    -0.9626     3.9768 H       
  39 H39            1.9853    -1.1701     2.0163 H       
  40 H40            2.5612    -5.2609    -0.3254 H       
  41 H41            3.7199    -6.4615    -0.9452 H       
  42 H42            3.5322    -6.2291     0.8095 H       
@<TRIPOS>BOND
   1    1    2 1
   2    1    8 2
   3    1    9 am
   4    2    3 ar
   5    2    7 ar
   6    3    4 ar
   7    3   27 1
   8    4    5 ar
   9    4   16 1
  10    5    6 ar
  11    5   28 1
  12    6    7 ar
  13    6   29 1
  14    7   30 1
  15    9   11 1
  16    9   31 1
  17   10   11 1
  18   10   14 1
  19   11   12 2
  20   12   13 1
  21   13   14 2
  22   13   15 1
  23   14   32 1
  24   15   33 1
  25   15   34 1
  26   15   35 1
  27   16   17 1
  28   17   18 ar
  29   17   22 ar
  30   18   19 ar
  31   18   23 1
  32   19   20 ar
  33   19   36 1
  34   20   21 ar
  35   20   37 1
  36   21   22 ar
  37   21   38 1
  38   22   39 1
  39   23   24 2
  40   23   25 2
  41   23   26 1
  42   26   40 1
  43   26   41 1
  44   26   42 1

#	End of record

