#	Name: ASD00130002
#	Creating user name:	WinNT
#	Creation time:	15. 06. 2019 18:31

#	Modifying user name:	WinNT
#	Modification time:	15. 06. 2019 18:31

#	Program:	/corina/corina34_cracker 3.40 0067  02.08.2006

@<TRIPOS>MOLECULE
ASD00130002
  61   64    0    0    0
SMALL
NO_CHARGES


@<TRIPOS>ATOM
   1 C1            -0.0170     1.3996     0.0097 C.ar    
   2 C2             0.0021    -0.0041     0.0020 C.ar    
   3 N3            -1.3068    -0.4460     0.0117 N.pl3   
   4 C4            -2.1645     0.6167     0.0235 C.2     
   5 C5            -1.4403     1.7914     0.0195 C.2     
   6 C6             1.1772     2.1156     0.0022 C.ar    
   7 C7             2.3785     1.4402    -0.0132 C.ar    
   8 C8             2.3997     0.0536    -0.0213 C.ar    
   9 C9             1.2247    -0.6670    -0.0132 C.ar    
  10 C10           -1.7583    -1.8467     0.0108 C.3     
  11 C11           -3.2276    -1.8731     0.4518 C.3     
  12 C12           -4.0074    -0.8087    -0.3271 C.3     
  13 O13           -3.5153     0.4903     0.0301 O.3     
  14 C14           -1.9758     3.1524     0.0313 C.2     
  15 N15           -2.2364     3.7841    -1.1304 N.am    
  16 C16           -2.7727     5.1473    -1.1187 C.3     
  17 C17           -1.6172     6.1501    -1.1284 C.3     
  18 C18           -2.1744     7.5718    -1.2420 C.3     
  19 C19           -1.0183     8.5732    -1.1899 C.3     
  20 N20           -0.2877     8.4141     0.0739 N.3     
  21 C21            0.2966     7.0714     0.1840 C.3     
  22 C22           -0.8202     6.0251     0.1730 C.3     
  23 C23            0.7431     9.4504     0.2202 C.3     
  24 C24            1.3096     9.4093     1.6409 C.3     
  25 C25            2.3832    10.4887     1.7932 C.3     
  26 C26            2.9497    10.4476     3.2139 C.3     
  27 C27           -1.9833     3.1075    -2.4049 C.3     
  28 O28           -2.1861     3.7147     1.0905 O.2     
  29 H29            1.1622     3.1955     0.0080 H       
  30 H30            3.3065     1.9926    -0.0192 H       
  31 H31            3.3460    -0.4668    -0.0340 H       
  32 H32            1.2534    -1.7466    -0.0197 H       
  33 H33           -1.6675    -2.2622    -0.9928 H       
  34 H34           -1.1543    -2.4287     0.7070 H       
  35 H35           -3.6512    -2.8566     0.2482 H       
  36 H36           -3.2911    -1.6625     1.5194 H       
  37 H37           -3.8723    -0.9680    -1.3969 H       
  38 H38           -5.0664    -0.8781    -0.0784 H       
  39 H39           -3.3944     5.3008    -2.0007 H       
  40 H40           -3.3733     5.2937    -0.2209 H       
  41 H41           -0.9647     5.9457    -1.9773 H       
  42 H42           -2.7069     7.6795    -2.1869 H       
  43 H43           -2.8580     7.7619    -0.4146 H       
  44 H44           -0.3424     8.3914    -2.0255 H       
  45 H45           -1.4129     9.5871    -1.2562 H       
  46 H46            0.9663     6.8966    -0.6580 H       
  47 H47            0.8571     6.9945     1.1157 H       
  48 H48           -1.4825     6.1909     1.0227 H       
  49 H49           -0.3853     5.0278     0.2390 H       
  50 H50            1.5446     9.2692    -0.4959 H       
  51 H51            0.3029    10.4298     0.0328 H       
  52 H52            0.5080     9.5905     2.3570 H       
  53 H53            1.7498     8.4300     1.8283 H       
  54 H54            3.1847    10.3076     1.0771 H       
  55 H55            1.9430    11.4681     1.6058 H       
  56 H56            2.1481    10.6288     3.9300 H       
  57 H57            3.3899     9.4683     3.4014 H       
  58 H58            3.7145    11.2166     3.3225 H       
  59 H59           -2.8767     2.5634    -2.7112 H       
  60 H60           -1.7298     3.8468    -3.1647 H       
  61 H61           -1.1549     2.4088    -2.2872 H       
@<TRIPOS>BOND
   1    1    2 ar
   2    1    6 ar
   3    1    5 1
   4    2    3 1
   5    2    9 ar
   6    3    4 1
   7    3   10 1
   8    4    5 2
   9    4   13 1
  10    5   14 1
  11    6    7 ar
  12    6   29 1
  13    7    8 ar
  14    7   30 1
  15    8    9 ar
  16    8   31 1
  17    9   32 1
  18   10   11 1
  19   10   33 1
  20   10   34 1
  21   11   12 1
  22   11   35 1
  23   11   36 1
  24   12   13 1
  25   12   37 1
  26   12   38 1
  27   14   15 am
  28   14   28 2
  29   15   16 1
  30   15   27 1
  31   16   17 1
  32   16   39 1
  33   16   40 1
  34   17   18 1
  35   17   22 1
  36   17   41 1
  37   18   19 1
  38   18   42 1
  39   18   43 1
  40   19   20 1
  41   19   44 1
  42   19   45 1
  43   20   21 1
  44   20   23 1
  45   21   22 1
  46   21   46 1
  47   21   47 1
  48   22   48 1
  49   22   49 1
  50   23   24 1
  51   23   50 1
  52   23   51 1
  53   24   25 1
  54   24   52 1
  55   24   53 1
  56   25   26 1
  57   25   54 1
  58   25   55 1
  59   26   56 1
  60   26   57 1
  61   26   58 1
  62   27   59 1
  63   27   60 1
  64   27   61 1

#	End of record

