#	Name: ASD03730759
#	Creating user name:	WinNT
#	Creation time:	15. 06. 2019 20:44

#	Modifying user name:	WinNT
#	Modification time:	15. 06. 2019 20:44

#	Program:	/corina/corina34_cracker 3.40 0067  02.08.2006

@<TRIPOS>MOLECULE
ASD03730759
  50   53    0    0    0
SMALL
NO_CHARGES


@<TRIPOS>ATOM
   1 O1            -0.0175     1.4361     0.0099 O.3     
   2 C2             0.0021    -0.0041     0.0020 C.3     
   3 C3             1.3458    -0.3163    -0.6708 C.3     
   4 C4             2.1586     0.9230    -0.4087 C.ar    
   5 C5             1.2614     1.9062     0.0003 C.ar    
   6 C6             1.7496     3.1681     0.3265 C.ar    
   7 C7             3.0994     3.4384     0.2351 C.ar    
   8 C8             3.9802     2.4573    -0.1806 C.ar    
   9 C9             3.5050     1.1984    -0.5019 C.ar    
  10 N10            2.1589    -2.4047    -1.1211 N.am    
  11 C11            1.9847    -1.5477    -0.0954 C.2     
  12 C12            1.1884    -0.5974    -2.1355 C.ar    
  13 C13            0.6774     0.1217    -3.1931 C.ar    
  14 C14            0.6701    -0.4253    -4.4639 C.ar    
  15 C15            1.1773    -1.6954    -4.6698 C.ar    
  16 C16            1.6901    -2.4196    -3.6138 C.ar    
  17 C17            1.7019    -1.8770    -2.3312 C.ar    
  18 O18            2.2851    -1.7344     1.0647 O.2     
  19 C19            2.7577    -3.7345    -0.9831 C.3     
  20 C20            1.6609    -4.7596    -0.6877 C.3     
  21 C21            2.2862    -6.1485    -0.5435 C.3     
  22 C22            1.1894    -7.1735    -0.2482 C.3     
  23 C23            1.8148    -8.5624    -0.1040 C.3     
  24 S24            3.7032     5.0409     0.6496 S.o2    
  25 O25            4.9013     5.1696    -0.1036 O.2     
  26 O26            2.5970     5.9026     0.4193 O.2     
  27 C27            4.0736     4.9406     2.4225 C.3     
  28 H28           -0.0222    -0.3969     1.0185 H       
  29 H29           -0.8262    -0.3990    -0.5864 H       
  30 H30            1.0682     3.9400     0.6526 H       
  31 H31            5.0359     2.6731    -0.2547 H       
  32 H32            4.1910     0.4301    -0.8267 H       
  33 H33            0.2818     1.1133    -3.0303 H       
  34 H34            0.2688     0.1381    -5.2933 H       
  35 H35            1.1714    -2.1223    -5.6618 H       
  36 H36            2.0840    -3.4110    -3.7822 H       
  37 H37            3.2653    -4.0024    -1.9097 H       
  38 H38            3.4770    -3.7259    -0.1641 H       
  39 H39            1.1532    -4.4917     0.2389 H       
  40 H40            0.9416    -4.7682    -1.5067 H       
  41 H41            2.7939    -6.4163    -1.4701 H       
  42 H42            3.0055    -6.1398     0.2754 H       
  43 H43            0.6817    -6.9056     0.6784 H       
  44 H44            0.4701    -7.1821    -1.0671 H       
  45 H45            2.3224    -8.8302    -1.0306 H       
  46 H46            2.5340    -8.5537     0.7150 H       
  47 H47            1.0334    -9.2926     0.1064 H       
  48 H48            4.8220     4.1669     2.5941 H       
  49 H49            4.4574     5.9003     2.7684 H       
  50 H50            3.1641     4.6942     2.9703 H       
@<TRIPOS>BOND
   1    1    2 1
   2    1    5 1
   3    2    3 1
   4    2   28 1
   5    2   29 1
   6    3    4 1
   7    3   11 1
   8    3   12 1
   9    4    5 ar
  10    4    9 ar
  11    5    6 ar
  12    6    7 ar
  13    6   30 1
  14    7    8 ar
  15    7   24 1
  16    8    9 ar
  17    8   31 1
  18    9   32 1
  19   10   11 am
  20   10   17 1
  21   10   19 1
  22   11   18 2
  23   12   13 ar
  24   12   17 ar
  25   13   14 ar
  26   13   33 1
  27   14   15 ar
  28   14   34 1
  29   15   16 ar
  30   15   35 1
  31   16   17 ar
  32   16   36 1
  33   19   20 1
  34   19   37 1
  35   19   38 1
  36   20   21 1
  37   20   39 1
  38   20   40 1
  39   21   22 1
  40   21   41 1
  41   21   42 1
  42   22   23 1
  43   22   43 1
  44   22   44 1
  45   23   45 1
  46   23   46 1
  47   23   47 1
  48   24   25 2
  49   24   26 2
  50   24   27 1
  51   27   48 1
  52   27   49 1
  53   27   50 1

#	End of record

