#	Name: ASD05490104
#	Creating user name:	WinNT
#	Creation time:	15. 06. 2019 21:01

#	Modifying user name:	WinNT
#	Modification time:	15. 06. 2019 21:01

#	Program:	/corina/corina34_cracker 3.40 0067  02.08.2006

@<TRIPOS>MOLECULE
ASD05490104
  68   72    0    0    0
SMALL
NO_CHARGES


@<TRIPOS>ATOM
   1 N1            -0.0178     1.4608     0.0101 N.pl3   
   2 O2             4.5582     2.8949    -0.0261 O.3     
   3 N3             2.7941     4.3826    -0.0015 N.ar    
   4 C4             1.4952     4.6638     0.0118 C.ar    
   5 C5             3.2233     3.1292    -0.0123 C.ar    
   6 N6             2.3949     2.0994    -0.0093 N.ar    
   7 C7             1.0795     2.2895     0.0040 C.ar    
   8 C8             0.5781     3.6006     0.0150 C.ar    
   9 N9             1.0558     5.9772     0.0226 N.pl3   
  10 C10           -1.1306     2.2546     0.0190 C.2     
  11 N11           -0.7773     3.5129     0.0270 N.2     
  12 C12            5.4173     4.0368    -0.0280 C.3     
  13 C13            6.8766     3.5771    -0.0442 C.3     
  14 O14            7.1483     2.8975    -1.2715 O.3     
  15 C15            8.4917     2.4246    -1.3889 C.3     
  16 C16            0.0021    -0.0041     0.0020 C.3     
  17 C17            0.0225    -0.5140     1.4200 C.ar    
  18 C18           -1.1670    -0.7632     2.0791 C.ar    
  19 C19           -1.1538    -1.2316     3.3801 C.ar    
  20 C20            0.0632    -1.4521     4.0260 C.ar    
  21 C21            1.2576    -1.1984     3.3549 C.ar    
  22 C22            1.2315    -0.7362     2.0549 C.ar    
  23 C23            0.0853    -1.9541     5.4220 C.ar    
  24 C24            0.8788    -3.0488     5.7590 C.ar    
  25 C25           -0.6831    -1.3290     6.4022 C.ar    
  26 C26           -0.6588    -1.8002     7.6992 C.ar    
  27 C27            0.1268    -2.8905     8.0270 C.ar    
  28 C28            0.8955    -3.5116     7.0592 C.ar    
  29 N29           -0.8998    -4.4135     9.6181 N.3     
  30 C30           -0.7586    -5.1045    10.9129 C.3     
  31 C31           -2.0899    -4.9275    11.6730 C.3     
  32 C32           -3.1048    -4.6344    10.5368 C.3     
  33 C33           -2.2437    -3.8006     9.5556 C.3     
  34 C34            0.1495    -3.4001     9.4450 C.3     
  35 F35           -2.3163    -1.4747     4.0242 F       
  36 O36           -2.4073     1.8048     0.0270 O.3     
  37 C37           -3.4422     2.7900     0.0462 C.3     
  38 H38            1.6985     6.7037     0.0206 H       
  39 H39            0.1053     6.1706     0.0323 H       
  40 H40            5.2168     4.6408    -0.9129 H       
  41 H41            5.2335     4.6312     0.8670 H       
  42 H42            7.5315     4.4439     0.0439 H       
  43 H43            7.0539     2.9012     0.7924 H       
  44 H44            8.6170     1.9208    -2.3473 H       
  45 H45            9.1802     3.2675    -1.3287 H       
  46 H46            8.7025     1.7248    -0.5803 H       
  47 H47           -0.8878    -0.3767    -0.5053 H       
  48 H48            0.8920    -0.3525    -0.5222 H       
  49 H49           -2.1078    -0.5915     1.5773 H       
  50 H50            2.2025    -1.3673     3.8500 H       
  51 H51            2.1572    -0.5399     1.5344 H       
  52 H52            1.4794    -3.5345     5.0041 H       
  53 H53           -1.2962    -0.4772     6.1475 H       
  54 H54           -1.2539    -1.3165     8.4596 H       
  55 H55            1.5070    -4.3625     7.3206 H       
  56 H56           -0.5636    -6.1642    10.7484 H       
  57 H57            0.0563    -4.6594    11.4838 H       
  58 H58           -2.3567    -5.8429    12.2014 H       
  59 H59           -2.0307    -4.0861    12.3634 H       
  60 H60           -3.4452    -5.5584    10.0694 H       
  61 H61           -3.9485    -4.0523    10.9075 H       
  62 H62           -2.2017    -2.7601     9.8776 H       
  63 H63           -2.6458    -3.8699     8.5448 H       
  64 H64            1.1222    -3.8446     9.6558 H       
  65 H65           -0.0281    -2.5723    10.1315 H       
  66 H66           -3.3425     3.4042     0.9411 H       
  67 H67           -3.3595     3.4211    -0.8387 H       
  68 H68           -4.4139     2.2962     0.0508 H       
@<TRIPOS>BOND
   1    1   16 1
   2    1    7 1
   3    1   10 1
   4    2   12 1
   5    2    5 1
   6    3    4 ar
   7    3    5 ar
   8    4    9 1
   9    4    8 ar
  10    5    6 ar
  11    6    7 ar
  12    7    8 ar
  13    8   11 1
  14    9   38 1
  15    9   39 1
  16   10   11 2
  17   10   36 1
  18   12   13 1
  19   12   40 1
  20   12   41 1
  21   13   14 1
  22   13   42 1
  23   13   43 1
  24   14   15 1
  25   15   44 1
  26   15   45 1
  27   15   46 1
  28   16   17 1
  29   16   47 1
  30   16   48 1
  31   17   18 ar
  32   17   22 ar
  33   18   19 ar
  34   18   49 1
  35   19   20 ar
  36   19   35 1
  37   20   21 ar
  38   20   23 1
  39   21   22 ar
  40   21   50 1
  41   22   51 1
  42   23   24 ar
  43   23   25 ar
  44   24   28 ar
  45   24   52 1
  46   25   26 ar
  47   25   53 1
  48   26   27 ar
  49   26   54 1
  50   27   28 ar
  51   27   34 1
  52   28   55 1
  53   29   30 1
  54   29   33 1
  55   29   34 1
  56   30   31 1
  57   30   56 1
  58   30   57 1
  59   31   32 1
  60   31   58 1
  61   31   59 1
  62   32   33 1
  63   32   60 1
  64   32   61 1
  65   33   62 1
  66   33   63 1
  67   34   64 1
  68   34   65 1
  69   36   37 1
  70   37   66 1
  71   37   67 1
  72   37   68 1

#	End of record

