#	Name: ASD03240785
#	Creating user name:	WinNT
#	Creation time:	15. 06. 2019 20:35

#	Modifying user name:	WinNT
#	Modification time:	15. 06. 2019 20:35

#	Program:	/corina/corina34_cracker 3.40 0067  02.08.2006

@<TRIPOS>MOLECULE
ASD03240785
  86   92    0    0    0
SMALL
NO_CHARGES


@<TRIPOS>ATOM
   1 C1            -0.0180     1.4742     0.0101 C.2     
   2 C2             0.0021    -0.0041     0.0020 C.ar    
   3 C3             1.2184    -0.6885    -0.0133 C.ar    
   4 C4             1.2301    -2.0680    -0.0203 C.ar    
   5 C5             0.0396    -2.7730    -0.0127 C.ar    
   6 C6            -1.1695    -2.1007     0.0024 C.ar    
   7 C7            -1.1952    -0.7214     0.0154 C.ar    
   8 O8             1.0263     2.0963     0.0035 O.2     
   9 N9            -1.1942     2.1322     0.0193 N.am    
  10 N10           -2.4574     6.0559     0.8915 N.3     
  11 C11           -2.5727     5.6226    -0.5068 C.3     
  12 C12           -2.5317     4.0942    -0.5736 C.3     
  13 C13           -1.2141     3.5970     0.0274 C.3     
  14 C14           -1.0964     4.1024     1.4679 C.3     
  15 C15           -1.1789     5.6306     1.4756 C.3     
  16 C16           -2.6316     7.5099     1.0082 C.3     
  17 C17           -2.7527     7.8862     2.4624 C.ar    
  18 C18           -1.6179     8.1958     3.1907 C.ar    
  19 C19           -1.7222     8.5416     4.5223 C.ar    
  20 C20           -2.9753     8.5786     5.1341 C.ar    
  21 C21           -4.1157     8.2654     4.3945 C.ar    
  22 C22           -3.9988     7.9263     3.0621 C.ar    
  23 C23           -1.3032     8.8359    10.8995 C.2     
  24 N24           -2.3421     9.5350    11.3897 N.2     
  25 C25           -3.3270     9.9392    10.6296 C.2     
  26 C26           -3.2989     9.6230     9.2031 C.ar    
  27 C27           -2.2060     8.8887     8.6948 C.ar    
  28 N28           -1.2125     8.5043     9.5747 N.pl3   
  29 C29           -4.3220    10.0278     8.3397 C.ar    
  30 C30           -4.2151     9.6829     6.9961 C.ar    
  31 C31           -3.0943     8.9485     6.5631 C.ar    
  32 N32           -2.1442     8.5827     7.4108 N.ar    
  33 N33           -0.0253     7.7848     9.3928 N.2     
  34 C34            0.5856     7.6781    10.5483 C.2     
  35 C35           -0.1763     8.3142    11.5203 C.2     
  36 C36           -5.2682    10.0832     6.0323 C.ar    
  37 C37           -6.6092     9.8295     6.3160 C.ar    
  38 C38           -7.5852    10.2048     5.4153 C.ar    
  39 C39           -7.2348    10.8311     4.2328 C.ar    
  40 C40           -5.9057    11.0850     3.9457 C.ar    
  41 C41           -4.9216    10.7198     4.8416 C.ar    
  42 C42            1.8975     6.9751    10.7844 C.3     
  43 C43            0.0601    -4.2798    -0.0215 C.3     
  44 C44            0.8003    -4.7870     1.2177 C.3     
  45 C45           -1.3753    -4.8094    -0.0105 C.3     
  46 C46            0.7759    -4.7728    -1.2806 C.3     
  47 H47            2.1484    -0.1393    -0.0199 H       
  48 H48            2.1706    -2.5988    -0.0321 H       
  49 H49           -2.0953    -2.6569     0.0083 H       
  50 H50           -2.1396    -0.1978     0.0318 H       
  51 H51           -2.0276     1.6358     0.0206 H       
  52 H52           -3.5158     5.9791    -0.9209 H       
  53 H53           -1.7443     6.0336    -1.0839 H       
  54 H54           -3.3678     3.6827    -0.0081 H       
  55 H55           -2.6016     3.7734    -1.6130 H       
  56 H56           -0.3790     3.9759    -0.5620 H       
  57 H57           -1.9099     3.6911     2.0655 H       
  58 H58           -0.1408     3.7875     1.8871 H       
  59 H59           -0.3571     6.0416     0.8892 H       
  60 H60           -1.1098     5.9929     2.5013 H       
  61 H61           -1.7696     8.0152     0.5727 H       
  62 H62           -3.5353     7.8111     0.4784 H       
  63 H63           -0.6482     8.1664     2.7159 H       
  64 H64           -0.8356     8.7827     5.0899 H       
  65 H65           -5.0886     8.2920     4.8627 H       
  66 H66           -4.8814     7.6875     2.4874 H       
  67 H67           -4.1492    10.4990    11.0503 H       
  68 H68           -5.1688    10.5900     8.7046 H       
  69 H69            0.0654     8.3908    12.5701 H       
  70 H70           -6.8838     9.3399     7.2386 H       
  71 H71           -8.6245    10.0087     5.6341 H       
  72 H72           -8.0020    11.1227     3.5307 H       
  73 H73           -5.6379    11.5740     3.0207 H       
  74 H74           -3.8845    10.9226     4.6185 H       
  75 H75            2.7169     7.6826    10.6567 H       
  76 H76            1.9179     6.5746    11.7979 H       
  77 H77            2.0067     6.1598    10.0692 H       
  78 H78            0.2903    -4.4358     2.1148 H       
  79 H79            0.8151    -5.8769     1.2114 H       
  80 H80            1.8229    -4.4098     1.2099 H       
  81 H81           -1.9027    -4.4480    -0.8933 H       
  82 H82           -1.3605    -5.8993    -0.0168 H       
  83 H83           -1.8853    -4.4582     0.8865 H       
  84 H84            1.7985    -4.3956    -1.2884 H       
  85 H85            0.7907    -5.8627    -1.2869 H       
  86 H86            0.2486    -4.4115    -2.1634 H       
@<TRIPOS>BOND
   1    1    2 1
   2    1    8 2
   3    1    9 am
   4    2    3 ar
   5    2    7 ar
   6    3    4 ar
   7    3   47 1
   8    4    5 ar
   9    4   48 1
  10    5    6 ar
  11    5   43 1
  12    6    7 ar
  13    6   49 1
  14    7   50 1
  15    9   13 1
  16    9   51 1
  17   10   11 1
  18   10   15 1
  19   10   16 1
  20   11   12 1
  21   11   52 1
  22   11   53 1
  23   12   13 1
  24   12   54 1
  25   12   55 1
  26   13   14 1
  27   13   56 1
  28   14   15 1
  29   14   57 1
  30   14   58 1
  31   15   59 1
  32   15   60 1
  33   16   17 1
  34   16   61 1
  35   16   62 1
  36   17   18 ar
  37   17   22 ar
  38   18   19 ar
  39   18   63 1
  40   19   20 ar
  41   19   64 1
  42   20   21 ar
  43   20   31 1
  44   21   22 ar
  45   21   65 1
  46   22   66 1
  47   23   24 1
  48   23   28 1
  49   23   35 2
  50   24   25 2
  51   25   26 1
  52   25   67 1
  53   26   27 ar
  54   26   29 ar
  55   27   28 1
  56   27   32 ar
  57   28   33 1
  58   29   30 ar
  59   29   68 1
  60   30   31 ar
  61   30   36 1
  62   31   32 ar
  63   33   34 2
  64   34   35 1
  65   34   42 1
  66   35   69 1
  67   36   37 ar
  68   36   41 ar
  69   37   38 ar
  70   37   70 1
  71   38   39 ar
  72   38   71 1
  73   39   40 ar
  74   39   72 1
  75   40   41 ar
  76   40   73 1
  77   41   74 1
  78   42   75 1
  79   42   76 1
  80   42   77 1
  81   43   44 1
  82   43   46 1
  83   43   45 1
  84   44   78 1
  85   44   79 1
  86   44   80 1
  87   45   81 1
  88   45   82 1
  89   45   83 1
  90   46   84 1
  91   46   85 1
  92   46   86 1

#	End of record

