#	Name: ASD08150751
#	Creating user name:	WinNT
#	Creation time:	15. 06. 2019 21:16

#	Modifying user name:	WinNT
#	Modification time:	15. 06. 2019 21:16

#	Program:	/corina/corina34_cracker 3.40 0067  02.08.2006

@<TRIPOS>MOLECULE
ASD08150751
  50   53    0    0    0
SMALL
NO_CHARGES


@<TRIPOS>ATOM
   1 C1            -0.0930     1.1408     0.0635 C.2     
   2 N2             0.1209    -0.1600     0.1337 N.2     
   3 C3             1.3438    -0.6689     0.0700 C.2     
   4 C4             2.4253     0.1921    -0.0743 C.2     
   5 C5             2.1906     1.5767    -0.1484 C.2     
   6 N6             0.9118     2.0496    -0.0778 N.am    
   7 S7            -1.5933     2.0835     0.1129 S.3     
   8 C8             0.5139     3.3627    -0.1344 C.2     
   9 C9            -0.7741     3.6462    -0.0522 C.2     
  10 O10            3.1250     2.3514    -0.2747 O.2     
  11 S11            6.1409    -0.9621    -0.8897 S.3     
  12 C12            5.5782    -1.4336     0.6538 C.2     
  13 N13            4.3710    -1.0223     0.8387 N.2     
  14 C14            3.8071    -0.3417    -0.1485 C.2     
  15 C15            4.6003    -0.1767    -1.2264 C.2     
  16 C16            1.5576    -2.1583     0.1533 C.3     
  17 C17            1.1743    -2.6513     1.5501 C.3     
  18 N18            0.7230    -2.8282    -0.8471 N.pl3   
  19 N19           -0.8527    -4.4356    -2.9410 N.2     
  20 C20           -1.1577    -5.4124    -3.7450 C.2     
  21 N21           -0.2180    -6.3963    -3.6599 N.pl3   
  22 C22            0.7198    -5.9913    -2.7441 C.ar    
  23 N23            1.8392    -6.5132    -2.2538 N.ar    
  24 C24            2.5466    -5.8606    -1.3556 C.ar    
  25 N25            2.1909    -4.6738    -0.8989 N.ar    
  26 C26            1.0872    -4.0725    -1.3310 C.ar    
  27 C27            0.2987    -4.7296    -2.2906 C.ar    
  28 C28            1.5309     4.4639    -0.2895 C.3     
  29 H29           -1.2315     4.6241    -0.0836 H       
  30 H30            6.1536    -1.9974     1.3732 H       
  31 H31            4.3377     0.3445    -2.1351 H       
  32 H32            2.6064    -2.3860    -0.0372 H       
  33 H33            1.3290    -3.7285     1.6103 H       
  34 H34            1.7953    -2.1528     2.2944 H       
  35 H35            0.1255    -2.4236     1.7406 H       
  36 H36           -0.0850    -2.3996    -1.1703 H       
  37 H37           -2.0273    -5.4397    -4.3849 H       
  38 H38           -0.2135    -7.2300    -4.1557 H       
  39 H39            3.4515    -6.3131    -0.9776 H       
  40 H40            1.6947     4.6606    -1.3491 H       
  41 H41            1.1639     5.3684     0.1955 H       
  42 H42            2.4698     4.1592     0.1728 H       
  43 C43           12.3250    12.3567     8.4412 C.2     
  44 C44           12.3455    10.8498     8.4329 C.3     
  45 O45           13.3631    12.9750     8.4346 O.2     
  46 O46           11.1536    13.0120     8.4503 O.3     
  47 F47           13.6706    10.4015     8.4179 F       
  48 F48           11.7033    10.3684     9.5788 F       
  49 F49           11.6815    10.3807     7.2944 F       
  50 H50           11.1911    13.9782     8.4554 H       
@<TRIPOS>BOND
   1    1    2 2
   2    1    6 1
   3    1    7 1
   4    2    3 1
   5    3    4 2
   6    3   16 1
   7    4    5 1
   8    4   14 1
   9    5    6 am
  10    5   10 2
  11    6    8 1
  12    7    9 1
  13    8    9 2
  14    8   28 1
  15    9   29 1
  16   11   12 1
  17   11   15 1
  18   12   13 2
  19   12   30 1
  20   13   14 1
  21   14   15 2
  22   15   31 1
  23   16   17 1
  24   16   18 1
  25   16   32 1
  26   17   33 1
  27   17   34 1
  28   17   35 1
  29   18   26 1
  30   18   36 1
  31   19   20 2
  32   19   27 1
  33   20   21 1
  34   20   37 1
  35   21   22 1
  36   21   38 1
  37   22   23 ar
  38   22   27 ar
  39   23   24 ar
  40   24   25 ar
  41   24   39 1
  42   25   26 ar
  43   26   27 ar
  44   28   40 1
  45   28   41 1
  46   28   42 1
  47   43   44 1
  48   43   45 2
  49   43   46 1
  50   44   47 1
  51   44   48 1
  52   44   49 1
  53   46   50 1

#	End of record

