#	Name: ASD01180271
#	Creating user name:	WinNT
#	Creation time:	15. 06. 2019 19:07

#	Modifying user name:	WinNT
#	Modification time:	15. 06. 2019 19:07

#	Program:	/corina/corina34_cracker 3.40 0067  02.08.2006

@<TRIPOS>MOLECULE
ASD01180271
  17   17    0    0    0
SMALL
NO_CHARGES


@<TRIPOS>ATOM
   1 C1             0.0021    -0.0041     0.0020 C.1     
   2 C2            -0.0173     1.4278     0.0099 C.ar    
   3 C3             1.1807     2.1447     0.0023 C.ar    
   4 C4             1.1543     3.5282     0.0095 C.ar    
   5 C5            -0.0618     4.2005     0.0242 C.ar    
   6 C6            -1.2496     3.4915     0.0322 C.ar    
   7 C7            -1.2346     2.1119     0.0193 C.ar    
   8 N8             0.0175    -1.1399    -0.0042 N.1     
   9 O9             2.3184     4.2299     0.0026 O.3     
  10 C10            3.5312     3.4744    -0.0121 C.3     
  11 Br11          -0.0930     6.0912     0.0340 Br      
  12 H12            2.1252     1.6210    -0.0088 H       
  13 H13           -2.1917     4.0195     0.0440 H       
  14 H14           -2.1638     1.5614     0.0208 H       
  15 H15            4.3830     4.1545    -0.0163 H       
  16 H16            3.5759     2.8417     0.8744 H       
  17 H17            3.5600     2.8506    -0.9055 H       
@<TRIPOS>BOND
   1    1    2 1
   2    1    8 3
   3    2    3 ar
   4    2    7 ar
   5    3    4 ar
   6    3   12 1
   7    4    5 ar
   8    4    9 1
   9    5    6 ar
  10    5   11 1
  11    6    7 ar
  12    6   13 1
  13    7   14 1
  14    9   10 1
  15   10   15 1
  16   10   16 1
  17   10   17 1

#	End of record

