#	Name: ASD01883866
#	Creating user name:	WinNT
#	Creation time:	15. 06. 2019 19:47

#	Modifying user name:	WinNT
#	Modification time:	15. 06. 2019 19:47

#	Program:	/corina/corina34_cracker 3.40 0067  02.08.2006

@<TRIPOS>MOLECULE
ASD01883866
  48   52    0    0    0
SMALL
NO_CHARGES


@<TRIPOS>ATOM
   1 O1            -0.0198     1.3510     0.0178 O.3     
   2 C2            -0.1563     0.0020    -0.0466 C.2     
   3 C3             0.7831    -2.1926    -0.1817 C.2     
   4 C4             0.9492    -0.7979    -0.1158 C.2     
   5 C5            -1.4398    -0.5823    -0.0364 C.2     
   6 C6            -1.5778    -1.9217    -0.0998 C.2     
   7 N7             0.9735    -4.3134    -0.2943 N.2     
   8 N8             1.6301    -3.2075    -0.2553 N.2     
   9 N9            -0.4812    -2.7296    -0.1745 N.pl3   
  10 C10           -0.3119    -4.0804    -0.2475 C.2     
  11 C11           -1.4066    -5.1158    -0.2706 C.3     
  12 C12           -1.7384    -5.5392     1.1618 C.3     
  13 C13           -2.9109    -6.5019     1.3602 C.3     
  14 C14           -1.4750    -6.9964     1.5467 C.3     
  15 C15            2.3294    -0.1929    -0.1220 C.3     
  16 F16            2.7896    -0.0677     1.1932 F       
  17 F17            3.1976    -1.0196    -0.8432 F       
  18 F18            2.2822     1.0701    -0.7219 F       
  19 C19           -0.4480     1.9897     1.2223 C.3     
  20 C20            0.2886     3.3073     1.5163 C.3     
  21 C21           -0.8033     4.0101     0.6925 C.3     
  22 C22           -1.7235     2.8319     1.0531 C.3     
  23 C23           -1.2489     5.3252     1.2781 C.ar    
  24 C24           -1.1097     6.4900     0.5468 C.ar    
  25 C25           -1.5184     7.6964     1.0840 C.ar    
  26 C26           -2.0666     7.7379     2.3524 C.ar    
  27 C27           -2.2066     6.5730     3.0833 C.ar    
  28 C28           -1.8019     5.3660     2.5444 C.ar    
  29 H29           -2.3161     0.0462     0.0227 H       
  30 H30           -2.5652    -2.3590    -0.0911 H       
  31 H31           -2.2955    -4.6944    -0.7400 H       
  32 H32           -1.0731    -5.9846    -0.8382 H       
  33 H33           -1.5763    -4.7792     1.9261 H       
  34 H34           -3.5199    -6.3756     2.2553 H       
  35 H35           -3.4458    -6.8337     0.4703 H       
  36 H36           -1.0654    -7.6534     0.7795 H       
  37 H37           -1.1394    -7.1953     2.5644 H       
  38 H38           -0.4821     1.3093     2.0731 H       
  39 H39            0.2855     3.5832     2.5708 H       
  40 H40            1.2795     3.3634     1.0659 H       
  41 H41           -0.5738     4.0753    -0.3711 H       
  42 H42           -2.3568     2.5043     0.2286 H       
  43 H43           -2.2766     2.9779     1.9809 H       
  44 H44           -0.6814     6.4576    -0.4441 H       
  45 H45           -1.4090     8.6065     0.5130 H       
  46 H46           -2.3852     8.6805     2.7724 H       
  47 H47           -2.6346     6.6054     4.0743 H       
  48 H48           -1.9146     4.4554     3.1140 H       
@<TRIPOS>BOND
   1    1    2 1
   2    1   19 1
   3    2    5 1
   4    2    4 2
   5    3    4 1
   6    3    9 1
   7    3    8 2
   8    4   15 1
   9    5    6 2
  10    5   29 1
  11    6    9 1
  12    6   30 1
  13    7    8 1
  14    7   10 2
  15    9   10 1
  16   10   11 1
  17   11   12 1
  18   11   31 1
  19   11   32 1
  20   12   13 1
  21   12   14 1
  22   12   33 1
  23   13   14 1
  24   13   34 1
  25   13   35 1
  26   14   36 1
  27   14   37 1
  28   15   16 1
  29   15   17 1
  30   15   18 1
  31   19   20 1
  32   19   22 1
  33   19   38 1
  34   20   21 1
  35   20   39 1
  36   20   40 1
  37   21   22 1
  38   21   23 1
  39   21   41 1
  40   22   42 1
  41   22   43 1
  42   23   24 ar
  43   23   28 ar
  44   24   25 ar
  45   24   44 1
  46   25   26 ar
  47   25   45 1
  48   26   27 ar
  49   26   46 1
  50   27   28 ar
  51   27   47 1
  52   28   48 1

#	End of record

