#	Name: ASD01916985
#	Creating user name:	WinNT
#	Creation time:	15. 06. 2019 20:08

#	Modifying user name:	WinNT
#	Modification time:	15. 06. 2019 20:08

#	Program:	/corina/corina34_cracker 3.40 0067  02.08.2006

@<TRIPOS>MOLECULE
ASD01916985
  65   69    0    0    0
SMALL
NO_CHARGES


@<TRIPOS>ATOM
   1 C1            -0.2031     1.3821     1.0521 C.ar    
   2 C2            -0.2571     0.0926     1.5636 C.ar    
   3 C3             0.9144    -0.5775     1.8893 C.ar    
   4 C4             2.1355     0.0364     1.7050 C.ar    
   5 C5             2.1928     1.3307     1.1913 C.ar    
   6 C6             1.0151     2.0010     0.8658 C.ar    
   7 C7             3.5051     1.9940     0.9924 C.2     
   8 N8             4.6982     1.4548     1.2669 N.2     
   9 N9             3.6841     3.2057     0.5121 N.2     
  10 N10            5.0690     3.4368     0.4917 N.pl3   
  11 C11            5.6517     2.3135     0.9722 C.2     
  12 C12            7.1044     2.0904     1.1378 C.ar    
  13 C13            5.7490     4.6519     0.0364 C.3     
  14 C14            5.8273     5.6393     1.1722 C.2     
  15 O15            5.3609     5.3559     2.2553 O.2     
  16 N16            6.4155     6.8373     0.9843 N.am    
  17 C17            6.5026     7.8155     2.0792 C.3     
  18 C18            7.9575     8.2809     2.2016 C.3     
  19 N19            8.4244     8.7665     0.8962 N.3     
  20 C20            8.4231     7.6907    -0.1041 C.3     
  21 C21            6.9927     7.1987    -0.3193 C.3     
  22 C22            9.6775     9.3445     1.0013 C.ar    
  23 C23            7.9755     3.1784     1.2108 C.ar    
  24 N24           10.5771     8.8219     1.8200 N.ar    
  25 C25            9.9902    10.4798     0.2340 C.ar    
  26 C26           11.2642    11.0463     0.3571 C.ar    
  27 C27           12.1622    10.4609     1.2322 C.ar    
  28 C28           11.7825     9.3409     1.9499 C.ar    
  29 O29           -1.4588    -0.5146     1.7462 O.3     
  30 C30           -1.4412    -1.8416     2.2761 C.3     
  31 C31            9.3286     2.9665     1.3651 C.ar    
  32 C32            9.8257     1.6723     1.4475 C.ar    
  33 C33            8.9619     0.5871     1.3748 C.ar    
  34 C34            7.6069     0.7914     1.2272 C.ar    
  35 O35           11.1598     1.4673     1.5991 O.3     
  36 C36           11.6031     0.1111     1.6769 C.3     
  37 C37            9.0234    11.0462    -0.6577 C.1     
  38 N38            8.2565    11.4955    -1.3651 N.1     
  39 H39           -1.1158     1.8995     0.7958 H       
  40 H40            0.8693    -1.5803     2.2876 H       
  41 H41            3.0465    -0.4852     1.9589 H       
  42 H42            1.0565     3.0040     0.4672 H       
  43 H43            6.7560     4.4014    -0.2973 H       
  44 H44            5.1914     5.0924    -0.7901 H       
  45 H45            5.8623     8.6697     1.8589 H       
  46 H46            6.1875     7.3493     3.0127 H       
  47 H47            8.0214     9.0862     2.9334 H       
  48 H48            8.5804     7.4463     2.5233 H       
  49 H49            8.8247     8.0680    -1.0446 H       
  50 H50            9.0396     6.8643     0.2497 H       
  51 H51            6.9999     6.3264    -0.9728 H       
  52 H52            6.3965     7.9923    -0.7697 H       
  53 H53            7.5897     4.1851     1.1460 H       
  54 H54           11.5396    11.9186    -0.2170 H       
  55 H55           13.1534    10.8730     1.3510 H       
  56 H56           12.4849     8.8855     2.6323 H       
  57 H57           -0.9644    -1.8351     3.2563 H       
  58 H58           -2.4632    -2.2083     2.3717 H       
  59 H59           -0.8826    -2.4937     1.6046 H       
  60 H60           10.0033     3.8080     1.4216 H       
  61 H61            9.3521    -0.4179     1.4389 H       
  62 H62            6.9358    -0.0530     1.1711 H       
  63 H63           11.1330    -0.3764     2.5310 H       
  64 H64           11.3282    -0.4141     0.7622 H       
  65 H65           12.6862     0.0891     1.7970 H       
@<TRIPOS>BOND
   1    1    2 ar
   2    1    6 ar
   3    1   39 1
   4    2    3 ar
   5    2   29 1
   6    3    4 ar
   7    3   40 1
   8    4    5 ar
   9    4   41 1
  10    5    6 ar
  11    5    7 1
  12    6   42 1
  13    7    8 1
  14    7    9 2
  15    8   11 2
  16    9   10 1
  17   10   11 1
  18   10   13 1
  19   11   12 1
  20   12   23 ar
  21   12   34 ar
  22   13   14 1
  23   13   43 1
  24   13   44 1
  25   14   15 2
  26   14   16 am
  27   16   17 1
  28   16   21 1
  29   17   18 1
  30   17   45 1
  31   17   46 1
  32   18   19 1
  33   18   47 1
  34   18   48 1
  35   19   20 1
  36   19   22 1
  37   20   21 1
  38   20   49 1
  39   20   50 1
  40   21   51 1
  41   21   52 1
  42   22   25 ar
  43   22   24 ar
  44   23   31 ar
  45   23   53 1
  46   24   28 ar
  47   25   26 ar
  48   25   37 1
  49   26   27 ar
  50   26   54 1
  51   27   28 ar
  52   27   55 1
  53   28   56 1
  54   29   30 1
  55   30   57 1
  56   30   58 1
  57   30   59 1
  58   31   32 ar
  59   31   60 1
  60   32   33 ar
  61   32   35 1
  62   33   34 ar
  63   33   61 1
  64   34   62 1
  65   35   36 1
  66   36   63 1
  67   36   64 1
  68   36   65 1
  69   37   38 3

#	End of record

