#	Name: ASD08830192
#	Creating user name:	WinNT
#	Creation time:	15. 06. 2019 21:20

#	Modifying user name:	WinNT
#	Modification time:	15. 06. 2019 21:20

#	Program:	/corina/corina34_cracker 3.40 0067  02.08.2006

@<TRIPOS>MOLECULE
ASD08830192
  36   38    0    0    0
SMALL
NO_CHARGES


@<TRIPOS>ATOM
   1 C1            -0.0179     1.4653     0.0101 C.ar    
   2 C2             0.0021    -0.0041     0.0020 C.2     
   3 C3            -1.2926    -0.7753     0.0102 C.3     
   4 C4            -0.9927    -2.2755    -0.0007 C.3     
   5 N5            -2.2547    -3.0273     0.0073 N.3     
   6 O6             1.0605    -0.5961    -0.0113 O.2     
   7 C7            -1.2454     2.1506     0.0313 C.ar    
   8 C8            -2.0181    -4.4568    -0.2410 C.3     
   9 C9            -3.3490    -5.2097    -0.1649 C.3     
  10 O10           -4.2665    -4.6418    -1.1035 O.3     
  11 C11           -4.5205    -3.2506    -0.8906 C.3     
  12 C12           -3.2015    -2.4779    -0.9741 C.3     
  13 C13            1.1793     2.1770     0.0025 C.ar    
  14 C14            1.1466     3.5715     0.0103 C.ar    
  15 C15           -0.0926     4.2446     0.0257 C.ar    
  16 C16           -1.2803     3.5110     0.0391 C.ar    
  17 C17            2.1757     4.6084     0.0060 C.2     
  18 N18            1.5740     5.7629     0.0180 N.2     
  19 N19            0.1874     5.5831     0.0303 N.pl3   
  20 H20           -1.8592    -0.5245     0.9070 H       
  21 H21           -1.8762    -0.5150    -0.8728 H       
  22 H22           -0.4261    -2.5263    -0.8975 H       
  23 H23           -0.4091    -2.5358     0.8824 H       
  24 H24           -2.1696     1.5919     0.0413 H       
  25 H25           -1.5824    -4.5869    -1.2316 H       
  26 H26           -1.3346    -4.8488     0.5123 H       
  27 H27           -3.1869    -6.2606    -0.4046 H       
  28 H28           -3.7584    -5.1242     0.8417 H       
  29 H29           -5.2057    -2.8846    -1.6552 H       
  30 H30           -4.9640    -3.1082     0.0948 H       
  31 H31           -3.3819    -1.4252    -0.7560 H       
  32 H32           -2.7847    -2.5763    -1.9764 H       
  33 H33            2.1241     1.6541    -0.0090 H       
  34 H34           -2.2301     4.0249     0.0505 H       
  35 H35            3.2434     4.4463    -0.0047 H       
  36 H36           -0.4714     6.2949     0.0404 H       
@<TRIPOS>BOND
   1    1    2 1
   2    1   13 ar
   3    1    7 ar
   4    2    3 1
   5    2    6 2
   6    3    4 1
   7    3   20 1
   8    3   21 1
   9    4    5 1
  10    4   22 1
  11    4   23 1
  12    5    8 1
  13    5   12 1
  14    7   16 ar
  15    7   24 1
  16    8    9 1
  17    8   25 1
  18    8   26 1
  19    9   10 1
  20    9   27 1
  21    9   28 1
  22   10   11 1
  23   11   12 1
  24   11   29 1
  25   11   30 1
  26   12   31 1
  27   12   32 1
  28   13   14 ar
  29   13   33 1
  30   14   15 ar
  31   14   17 1
  32   15   16 ar
  33   15   19 1
  34   16   34 1
  35   17   18 2
  36   17   35 1
  37   18   19 1
  38   19   36 1

#	End of record

