#	Name: ASD01730036
#	Creating user name:	WinNT
#	Creation time:	15. 06. 2019 19:23

#	Modifying user name:	WinNT
#	Modification time:	15. 06. 2019 19:23

#	Program:	/corina/corina34_cracker 3.40 0067  02.08.2006

@<TRIPOS>MOLECULE
ASD01730036
  38   40    0    0    0
SMALL
NO_CHARGES


@<TRIPOS>ATOM
   1 C1             0.0305     1.5048    -0.0008 C.2     
   2 C2             0.1867     0.0065    -0.0402 C.3     
   3 N3             1.0909     2.2739     0.0049 N.2     
   4 N4            -1.2119     2.0589     0.0233 N.pl3   
   5 C5            -1.3637     3.5155     0.0616 C.3     
   6 C6            -2.8288     3.8675     0.0823 C.ar    
   7 C7            -3.4912     3.9984     1.2886 C.ar    
   8 C8            -4.8352     4.3212     1.3076 C.ar    
   9 C9            -5.5167     4.5136     0.1204 C.ar    
  10 C10           -4.8541     4.3835    -1.0858 C.ar    
  11 C11           -3.5091     4.0649    -1.1047 C.ar    
  12 S12            4.9608     2.1036    -0.3524 S.3     
  13 C13            3.2809     1.9726    -1.0363 C.3     
  14 C14            2.3173     1.7280     0.0927 C.2     
  15 N15            2.5938     1.0287     1.1386 N.2     
  16 C16            3.7620     0.3949     1.4178 C.ar    
  17 C17            4.9694     0.7755     0.8101 C.ar    
  18 C18            3.7730    -0.6628     2.3330 C.ar    
  19 C19            4.9546    -1.3096     2.6291 C.ar    
  20 C20            6.1393    -0.9226     2.0276 C.ar    
  21 C21            6.1473     0.1193     1.1170 C.ar    
  22 H22            0.3310    -0.3706     0.9723 H       
  23 H23           -0.7093    -0.4410    -0.4703 H       
  24 H24            1.0514    -0.2528    -0.6511 H       
  25 H25           -1.9971     1.4895     0.0151 H       
  26 H26           -0.8831     3.9074     0.9581 H       
  27 H27           -0.8974     3.9528    -0.8213 H       
  28 H28           -2.9588     3.8482     2.2161 H       
  29 H29           -5.3529     4.4229     2.2500 H       
  30 H30           -6.5669     4.7651     0.1352 H       
  31 H31           -5.3866     4.5334    -2.0134 H       
  32 H32           -2.9905     3.9670    -2.0470 H       
  33 H33            3.0200     2.9004    -1.5454 H       
  34 H34            3.2366     1.1417    -1.7404 H       
  35 H35            2.8546    -0.9734     2.8089 H       
  36 H36            4.9553    -2.1252     3.3371 H       
  37 H37            7.0589    -1.4348     2.2690 H       
  38 H38            7.0721     0.4199     0.6471 H       
@<TRIPOS>BOND
   1    1    2 1
   2    1    3 2
   3    1    4 1
   4    2   22 1
   5    2   23 1
   6    2   24 1
   7    3   14 1
   8    4    5 1
   9    4   25 1
  10    5    6 1
  11    5   26 1
  12    5   27 1
  13    6    7 ar
  14    6   11 ar
  15    7    8 ar
  16    7   28 1
  17    8    9 ar
  18    8   29 1
  19    9   10 ar
  20    9   30 1
  21   10   11 ar
  22   10   31 1
  23   11   32 1
  24   12   13 1
  25   12   17 1
  26   13   14 1
  27   13   33 1
  28   13   34 1
  29   14   15 2
  30   15   16 1
  31   16   17 ar
  32   16   18 ar
  33   17   21 ar
  34   18   19 ar
  35   18   35 1
  36   19   20 ar
  37   19   36 1
  38   20   21 ar
  39   20   37 1
  40   21   38 1

#	End of record

