#	Name: ASD01813672
#	Creating user name:	WinNT
#	Creation time:	15. 06. 2019 19:30

#	Modifying user name:	WinNT
#	Modification time:	15. 06. 2019 19:30

#	Program:	/corina/corina34_cracker 3.40 0067  02.08.2006

@<TRIPOS>MOLECULE
ASD01813672
  45   48    0    0    0
SMALL
NO_CHARGES


@<TRIPOS>ATOM
   1 C1             0.0986     1.4751     0.3556 C.ar    
   2 C2             0.0803     0.0888     0.3476 C.ar    
   3 C3             1.2502    -0.6314     0.2176 C.ar    
   4 C4             2.4681     0.0344     0.0920 C.ar    
   5 C5             2.4851     1.4396     0.0998 C.ar    
   6 C6             1.2931     2.1562     0.2326 C.ar    
   7 N7             3.6439    -0.6744    -0.0375 N.pl3   
   8 C8             4.8383    -0.0818    -0.1601 C.2     
   9 C9             4.9809     1.2911    -0.1654 C.2     
  10 C10            3.7794     2.1315    -0.0338 C.2     
  11 O11            3.8522     3.3479    -0.0333 O.2     
  12 C12            6.3098     1.9037    -0.3011 C.2     
  13 O13            6.4361     3.2458    -0.3049 O.3     
  14 O14            7.2952     1.2001    -0.4099 O.2     
  15 C15            3.5837    -2.1382    -0.0406 C.3     
  16 C16            3.4403    -2.6321    -1.4571 C.ar    
  17 C17            4.5552    -2.7792    -2.2611 C.ar    
  18 N18            4.4430    -3.2105    -3.5011 N.ar    
  19 C19            3.2646    -3.5192    -4.0260 C.ar    
  20 C20            2.0992    -3.3943    -3.2725 C.ar    
  21 C21            2.1882    -2.9490    -1.9652 C.ar    
  22 F22            1.2151    -1.9820     0.2125 F       
  23 F23            1.3091     3.5071     0.2397 F       
  24 C24            3.1867    -4.0011    -5.4269 C.ar    
  25 C25            1.9515    -4.2311    -6.0288 C.ar    
  26 N26            1.8811    -4.6586    -7.2729 N.ar    
  27 C27            2.9624    -4.8844    -7.9936 C.ar    
  28 C28            4.2253    -4.6799    -7.4679 C.ar    
  29 C29            4.3515    -4.2260    -6.1664 C.ar    
  30 C30            2.8197    -5.3734    -9.4119 C.3     
  31 H31           -0.8260     2.0245     0.4541 H       
  32 H32           -0.8602    -0.4333     0.4445 H       
  33 H33            5.7195    -0.6985    -0.2577 H       
  34 H34            7.3303     3.6023    -0.3966 H       
  35 H35            4.4990    -2.5404     0.3935 H       
  36 H36            2.7272    -2.4678     0.5476 H       
  37 H37            5.5314    -2.5370    -1.8676 H       
  38 H38            1.1403    -3.6454    -3.7014 H       
  39 H39            1.3023    -2.8421    -1.3568 H       
  40 H40            1.0435    -4.0578    -5.4702 H       
  41 H41            5.1034    -4.8683    -8.0678 H       
  42 H42            5.3252    -4.0578    -5.7306 H       
  43 H43            2.7662    -4.5194   -10.0870 H       
  44 H44            3.6806    -5.9891    -9.6723 H       
  45 H45            1.9090    -5.9655    -9.5021 H       
@<TRIPOS>BOND
   1    1    2 ar
   2    1    6 ar
   3    1   31 1
   4    2    3 ar
   5    2   32 1
   6    3   22 1
   7    3    4 ar
   8    4    5 ar
   9    4    7 1
  10    5    6 ar
  11    5   10 1
  12    6   23 1
  13    7    8 1
  14    7   15 1
  15    8    9 2
  16    8   33 1
  17    9   10 1
  18    9   12 1
  19   10   11 2
  20   12   13 1
  21   12   14 2
  22   13   34 1
  23   15   16 1
  24   15   35 1
  25   15   36 1
  26   16   17 ar
  27   16   21 ar
  28   17   18 ar
  29   17   37 1
  30   18   19 ar
  31   19   20 ar
  32   19   24 1
  33   20   21 ar
  34   20   38 1
  35   21   39 1
  36   24   25 ar
  37   24   29 ar
  38   25   26 ar
  39   25   40 1
  40   26   27 ar
  41   27   28 ar
  42   27   30 1
  43   28   29 ar
  44   28   41 1
  45   29   42 1
  46   30   43 1
  47   30   44 1
  48   30   45 1

#	End of record

