#	Name: ASD08150989
#	Creating user name:	WinNT
#	Creation time:	15. 06. 2019 21:16

#	Modifying user name:	WinNT
#	Modification time:	15. 06. 2019 21:16

#	Program:	/corina/corina34_cracker 3.40 0067  02.08.2006

@<TRIPOS>MOLECULE
ASD08150989
  54   57    0    0    0
SMALL
NO_CHARGES


@<TRIPOS>ATOM
   1 N1             4.0368     2.9897     2.9493 N.2     
   2 C2             5.0114     2.2940     3.4589 C.2     
   3 N3             6.0559     2.2456     2.5843 N.pl3   
   4 C4             5.6927     2.9586     1.4699 C.ar    
   5 N5             6.2780     3.2573     0.3148 N.ar    
   6 C6             5.6522     3.9851    -0.5861 C.ar    
   7 N7             4.4312     4.4512    -0.3971 N.ar    
   8 C8             3.7664     4.2040     0.7269 C.ar    
   9 C9             4.3927     3.4308     1.7189 C.ar    
  10 N10            2.4873     4.6972     0.9160 N.pl3   
  11 C11            1.8505     5.5020    -0.1295 C.3     
  12 C12            1.2437     4.5771    -1.1865 C.3     
  13 S13           -2.2727     9.0780     2.4210 S.3     
  14 C14           -0.8976     9.9543     2.9242 C.2     
  15 N15            0.1835     9.4074     2.5112 N.2     
  16 C16            0.0800     8.2834     1.7811 C.ar    
  17 C17           -1.2526     7.9010     1.5989 C.ar    
  18 C18            1.0988     7.4810     1.2040 C.ar    
  19 C19            0.7636     6.3489     0.4807 C.ar    
  20 C20           -0.5631     5.9896     0.3134 C.ar    
  21 C21           -1.5647     6.7576     0.8663 C.ar    
  22 C22           -0.9495    11.2135     3.7506 C.3     
  23 C23            2.5224     7.8553     1.3756 C.ar    
  24 C24            3.1158     7.7907     2.6356 C.ar    
  25 C25            4.4438     8.1411     2.7891 C.ar    
  26 C26            5.1839     8.5557     1.6933 C.ar    
  27 C27            4.5986     8.6215     0.4423 C.ar    
  28 C28            3.2747     8.2678     0.2766 C.ar    
  29 F29            5.0210     8.0798     4.0091 F       
  30 H30            4.9953     1.8246     4.4314 H       
  31 H31            6.9012     1.7908     2.7244 H       
  32 H32            6.1564     4.2098    -1.5144 H       
  33 H33            2.0123     4.5099     1.7408 H       
  34 H34            2.5953     6.1471    -0.5956 H       
  35 H35            0.5771     3.8622    -0.7041 H       
  36 H36            0.6805     5.1697    -1.9075 H       
  37 H37            2.0410     4.0407    -1.7008 H       
  38 H38           -0.8138     5.1048    -0.2529 H       
  39 H39           -2.5973     6.4713     0.7317 H       
  40 H40           -1.9881    11.4632     3.9675 H       
  41 H41           -0.4106    11.0572     4.6850 H       
  42 H42           -0.4873    12.0308     3.1969 H       
  43 H43            2.5389     7.4679     3.4896 H       
  44 H44            6.2214     8.8288     1.8170 H       
  45 H45            5.1799     8.9460    -0.4081 H       
  46 H46            2.8208     8.3153    -0.7022 H       
  47 C47           13.0726    19.0190    10.8319 C.2     
  48 C48           13.0930    17.5122    10.8236 C.3     
  49 O49           14.1106    19.6373    10.8253 O.2     
  50 O50           11.9012    19.6743    10.8410 O.3     
  51 F51           14.4182    17.0638    10.8085 F       
  52 F52           12.4509    17.0308    11.9695 F       
  53 F53           12.4291    17.0430     9.6850 F       
  54 H54           11.9387    20.6405    10.8460 H       
@<TRIPOS>BOND
   1    1    2 2
   2    1    9 1
   3    2    3 1
   4    2   30 1
   5    3    4 1
   6    3   31 1
   7    4    5 ar
   8    4    9 ar
   9    5    6 ar
  10    6    7 ar
  11    6   32 1
  12    7    8 ar
  13    8    9 ar
  14    8   10 1
  15   10   11 1
  16   10   33 1
  17   11   12 1
  18   11   19 1
  19   11   34 1
  20   12   35 1
  21   12   36 1
  22   12   37 1
  23   13   14 1
  24   13   17 1
  25   14   15 2
  26   14   22 1
  27   15   16 1
  28   16   17 ar
  29   16   18 ar
  30   17   21 ar
  31   18   19 ar
  32   18   23 1
  33   19   20 ar
  34   20   21 ar
  35   20   38 1
  36   21   39 1
  37   22   40 1
  38   22   41 1
  39   22   42 1
  40   23   24 ar
  41   23   28 ar
  42   24   25 ar
  43   24   43 1
  44   25   26 ar
  45   25   29 1
  46   26   27 ar
  47   26   44 1
  48   27   28 ar
  49   27   45 1
  50   28   46 1
  51   47   48 1
  52   47   49 2
  53   47   50 1
  54   48   51 1
  55   48   52 1
  56   48   53 1
  57   50   54 1

#	End of record

