#	Name: ASD04910460
#	Creating user name:	WinNT
#	Creation time:	15. 06. 2019 20:55

#	Modifying user name:	WinNT
#	Modification time:	15. 06. 2019 20:55

#	Program:	/corina/corina34_cracker 3.40 0067  02.08.2006

@<TRIPOS>MOLECULE
ASD04910460
  60   62    0    0    0
SMALL
NO_CHARGES


@<TRIPOS>ATOM
   1 C1            -2.6069    -1.6043    -5.7530 C.2     
   2 C2            -2.0228    -2.3796    -4.6003 C.3     
   3 C3            -1.0257    -3.4110    -5.1325 C.3     
   4 O4            -2.2612    -1.8512    -6.8841 O.2     
   5 O5            -3.5153    -0.6431    -5.5235 O.3     
   6 C6             0.4501    -5.1336    -4.2428 C.2     
   7 C7             1.0220    -5.8927    -3.1143 C.ar    
   8 C8             1.9682    -6.9037    -3.3432 C.ar    
   9 C9             2.4720    -7.5822    -2.2668 C.ar    
  10 C10            2.0348    -7.2526    -0.9849 C.ar    
  11 N11            1.1393    -6.2930    -0.7961 N.ar    
  12 C12            0.6341    -5.6119    -1.8034 C.ar    
  13 O13            0.7980    -5.3821    -5.3811 O.2     
  14 N14           -0.4579    -4.1647    -4.0120 N.am    
  15 N15            2.5424    -7.9369     0.1065 N.pl3   
  16 C16            3.6164    -8.9160    -0.0777 C.3     
  17 C17            4.3829    -9.0854     1.2356 C.3     
  18 C18            5.0452    -7.7591     1.6143 C.3     
  19 C19            5.6944    -7.8888     2.9936 C.3     
  20 C20            1.8550   -10.6916     0.0924 C.ar    
  21 C21            3.0245   -10.2397    -0.4882 C.ar    
  22 C22            3.6479   -11.0175    -1.4534 C.ar    
  23 C23            3.0702   -12.2267    -1.8015 C.ar    
  24 C24            1.8931   -12.6179    -1.1763 C.ar    
  25 N25            1.3284   -11.8482    -0.2599 N.ar    
  26 N26            1.2991   -13.8364    -1.5188 N.pl3   
  27 N27            1.7785   -14.7514    -2.4652 N.2     
  28 C28            0.9557   -15.7675    -2.5063 C.2     
  29 C29           -0.0760   -15.5370    -1.5891 C.2     
  30 C30            0.1572   -14.3471    -0.9891 C.2     
  31 C31           -1.2388   -16.4553    -1.3140 C.3     
  32 F32           -1.1360   -17.5927    -2.1221 F       
  33 F33           -1.2236   -16.8366     0.0320 F       
  34 F34           -2.4361   -15.7892    -1.5965 F       
  35 C35            6.1149    -7.4091     0.5780 C.3     
  36 H36           -1.5110    -1.6949    -3.9240 H       
  37 H37           -2.8223    -2.8905    -4.0637 H       
  38 H38           -1.5375    -4.0957    -5.8088 H       
  39 H39           -0.2262    -2.9001    -5.6691 H       
  40 H40           -3.8614    -0.1731    -6.2945 H       
  41 H41            2.2910    -7.1411    -4.3461 H       
  42 H42            3.2013    -8.3660    -2.4092 H       
  43 H43           -0.0896    -4.8329    -1.6141 H       
  44 H44           -0.7354    -3.9665    -3.1039 H       
  45 H45            2.1869    -7.7680     0.9930 H       
  46 H46            4.2977    -8.5664    -0.8535 H       
  47 H47            3.6918    -9.3844     2.0237 H       
  48 H48            5.1482    -9.8518     1.1134 H       
  49 H49            4.2923    -6.9713     1.6397 H       
  50 H50            6.4472    -8.6767     2.9682 H       
  51 H51            6.1662    -6.9440     3.2634 H       
  52 H52            4.9323    -8.1382     3.7319 H       
  53 H53            1.3683   -10.0921     0.8474 H       
  54 H54            4.5627   -10.6870    -1.9228 H       
  55 H55            3.5284   -12.8570    -2.5492 H       
  56 H56            1.0553   -16.6362    -3.1402 H       
  57 H57           -0.4551   -13.8856    -0.2285 H       
  58 H58            6.8440    -8.2174     0.5211 H       
  59 H59            5.6461    -7.2735    -0.3966 H       
  60 H60            6.6169    -6.4870     0.8712 H       
@<TRIPOS>BOND
   1    1    2 1
   2    1    4 2
   3    1    5 1
   4    2    3 1
   5    2   36 1
   6    2   37 1
   7    3   14 1
   8    3   38 1
   9    3   39 1
  10    5   40 1
  11    6    7 1
  12    6   13 2
  13    6   14 am
  14    7    8 ar
  15    7   12 ar
  16    8    9 ar
  17    8   41 1
  18    9   10 ar
  19    9   42 1
  20   10   11 ar
  21   10   15 1
  22   11   12 ar
  23   12   43 1
  24   14   44 1
  25   15   16 1
  26   15   45 1
  27   16   17 1
  28   16   21 1
  29   16   46 1
  30   17   18 1
  31   17   47 1
  32   17   48 1
  33   18   19 1
  34   18   35 1
  35   18   49 1
  36   19   50 1
  37   19   51 1
  38   19   52 1
  39   20   21 ar
  40   20   25 ar
  41   20   53 1
  42   21   22 ar
  43   22   23 ar
  44   22   54 1
  45   23   24 ar
  46   23   55 1
  47   24   25 ar
  48   24   26 1
  49   26   27 1
  50   26   30 1
  51   27   28 2
  52   28   29 1
  53   28   56 1
  54   29   30 2
  55   29   31 1
  56   30   57 1
  57   31   32 1
  58   31   33 1
  59   31   34 1
  60   35   58 1
  61   35   59 1
  62   35   60 1

#	End of record

