#	Name: ASD02508132
#	Creating user name:	WinNT
#	Creation time:	15. 06. 2019 20:23

#	Modifying user name:	WinNT
#	Modification time:	15. 06. 2019 20:23

#	Program:	/corina/corina34_cracker 3.40 0067  02.08.2006

@<TRIPOS>MOLECULE
ASD02508132
  40   42    0    0    0
SMALL
NO_CHARGES


@<TRIPOS>ATOM
   1 C1            -0.0263     1.2281    -0.2734 C.ar    
   2 C2             0.9678     1.6942     0.5727 C.ar    
   3 C3             0.2054     0.1089    -1.0725 C.ar    
   4 C4             1.4325    -0.5334    -1.0168 C.ar    
   5 C5             2.4185    -0.0630    -0.1716 C.ar    
   6 C6             2.1873     1.0474     0.6217 C.ar    
   7 N7            -1.3299     1.6456    -0.5404 N.am    
   8 C8            -1.8420     0.8085    -1.4644 C.2     
   9 O9            -0.9245    -0.1167    -1.7867 O.3     
  10 S10            3.9776    -0.8809    -0.1023 S.o2    
  11 N11            4.1339    -1.5098     1.4216 N.am    
  12 C12            3.2068    -2.4479     1.8900 C.ar    
  13 O13           -2.9630     0.8780    -1.9304 O.2     
  14 C14           -2.0172     2.7853     0.0718 C.3     
  15 O15            3.8888    -1.9896    -0.9868 O.2     
  16 O16            4.9675     0.1315    -0.2220 O.2     
  17 C17            2.8286    -2.4465     3.2312 C.ar    
  18 C18            2.6579    -3.3773     1.0193 C.ar    
  19 C19            1.7415    -4.3036     1.4849 C.ar    
  20 C20            1.3711    -4.3045     2.8176 C.ar    
  21 C21            1.9111    -3.3765     3.6898 C.ar    
  22 Cl22           1.0550    -5.4666     0.3942 Cl      
  23 O23            3.3601    -1.5337     4.0883 O.3     
  24 C24            2.9264    -1.5916     5.4487 C.3     
  25 C25            3.2697     1.5530     1.5403 C.3     
  26 H26            0.7895     2.5611     1.1916 H       
  27 H27            1.6172    -1.4008    -1.6332 H       
  28 H28            4.8680    -1.2281     1.9896 H       
  29 H29           -1.8384     3.6803    -0.5242 H       
  30 H30           -3.0877     2.5844     0.1134 H       
  31 H31           -1.6369     2.9393     1.0816 H       
  32 H32            2.9452    -3.3779    -0.0217 H       
  33 H33            0.6553    -5.0288     3.1772 H       
  34 H34            1.6198    -3.3799     4.7297 H       
  35 H35            1.8477    -1.4413     5.4928 H       
  36 H36            3.1749    -2.5665     5.8681 H       
  37 H37            3.4257    -0.8111     6.0228 H       
  38 H38            3.9403     2.2089     0.9852 H       
  39 H39            2.8183     2.1073     2.3632 H       
  40 H40            3.8333     0.7086     1.9370 H       
@<TRIPOS>BOND
   1    1    2 ar
   2    1    3 ar
   3    1    7 1
   4    2    6 ar
   5    2   26 1
   6    3    4 ar
   7    3    9 1
   8    4    5 ar
   9    4   27 1
  10    5    6 ar
  11    5   10 1
  12    6   25 1
  13    7    8 am
  14    7   14 1
  15    8    9 1
  16    8   13 2
  17   10   11 am
  18   10   15 2
  19   10   16 2
  20   11   12 1
  21   11   28 1
  22   12   17 ar
  23   12   18 ar
  24   14   29 1
  25   14   30 1
  26   14   31 1
  27   17   23 1
  28   17   21 ar
  29   18   19 ar
  30   18   32 1
  31   19   20 ar
  32   19   22 1
  33   20   21 ar
  34   20   33 1
  35   21   34 1
  36   23   24 1
  37   24   35 1
  38   24   36 1
  39   24   37 1
  40   25   38 1
  41   25   39 1
  42   25   40 1

#	End of record

