#	Name: ASD01871030
#	Creating user name:	WinNT
#	Creation time:	15. 06. 2019 19:39

#	Modifying user name:	WinNT
#	Modification time:	15. 06. 2019 19:39

#	Program:	/corina/corina34_cracker 3.40 0067  02.08.2006

@<TRIPOS>MOLECULE
ASD01871030
  31   33    0    0    0
SMALL
NO_CHARGES


@<TRIPOS>ATOM
   1 C1            -0.0268     1.3783    -0.2354 C.2     
   2 C2            -0.0040     0.0375    -0.3550 C.2     
   3 S3            -1.6646    -0.5447    -0.2742 S.3     
   4 C4            -2.2326     1.0564    -0.0884 C.2     
   5 N5            -1.2434     1.8896    -0.0889 N.2     
   6 O6            -3.5356     1.4036     0.0457 O.3     
   7 C7            -4.4714     0.4221    -0.0542 C.ar    
   8 C8            -4.8180    -0.3247     1.0647 C.ar    
   9 C9            -5.0849     0.1692    -1.2718 C.ar    
  10 C10           -6.0360    -0.8281    -1.3720 C.ar    
  11 C11           -6.3774    -1.5758    -0.2577 C.ar    
  12 C12           -5.7706    -1.3223     0.9606 C.ar    
  13 C13            1.2003     2.2108    -0.2590 C.2     
  14 C14            1.2986     3.6727    -0.1383 C.2     
  15 N15            2.5869     3.9584    -0.2147 N.2     
  16 N16            3.2775     2.8880    -0.3632 N.pl3   
  17 C17            2.4935     1.7909    -0.3917 C.2     
  18 F18           -4.2251    -0.0772     2.2532 F       
  19 F19           -7.3080    -2.5500    -0.3582 F       
  20 C20            0.1922     4.6213     0.0315 C.2     
  21 C21            0.4751     6.0976     0.1391 C.3     
  22 O22           -0.9504     4.2171     0.0854 O.2     
  23 H23            0.8776    -0.5738    -0.4793 H       
  24 H24           -4.8197     0.7519    -2.1415 H       
  25 H25           -6.5138    -1.0245    -2.3204 H       
  26 H26           -6.0377    -1.9065     1.8288 H       
  27 H27            4.2442     2.8695    -0.4413 H       
  28 H28            2.8260     0.7697    -0.5060 H       
  29 H29            0.9773     6.4381    -0.7664 H       
  30 H30           -0.4629     6.6394     0.2600 H       
  31 H31            1.1155     6.2829     1.0014 H       
@<TRIPOS>BOND
   1    1    2 2
   2    1   13 1
   3    1    5 1
   4    2    3 1
   5    2   23 1
   6    3    4 1
   7    4    5 2
   8    4    6 1
   9    6    7 1
  10    7    8 ar
  11    7    9 ar
  12    8   18 1
  13    8   12 ar
  14    9   10 ar
  15    9   24 1
  16   10   11 ar
  17   10   25 1
  18   11   12 ar
  19   11   19 1
  20   12   26 1
  21   13   14 1
  22   13   17 2
  23   14   15 2
  24   14   20 1
  25   15   16 1
  26   16   17 1
  27   16   27 1
  28   17   28 1
  29   20   21 1
  30   20   22 2
  31   21   29 1
  32   21   30 1
  33   21   31 1

#	End of record

