#	Name: ASD00310463
#	Creating user name:	WinNT
#	Creation time:	15. 06. 2019 18:34

#	Modifying user name:	WinNT
#	Modification time:	15. 06. 2019 18:34

#	Program:	/corina/corina34_cracker 3.40 0067  02.08.2006

@<TRIPOS>MOLECULE
ASD00310463
  34   37    0    0    0
SMALL
NO_CHARGES


@<TRIPOS>ATOM
   1 N1            -0.0163     1.3500     0.0095 N.pl3   
   2 C2             0.0021    -0.0041     0.0020 C.2     
   3 C3             1.2921    -0.4483    -0.0127 C.2     
   4 C4             2.1475     0.7539    -0.0144 C.ar    
   5 C5             3.5230     0.9583    -0.0271 C.ar    
   6 C6             4.0239     2.2538    -0.0256 C.ar    
   7 C7             3.1465     3.3436    -0.0109 C.ar    
   8 C8             1.7850     3.1436     0.0021 C.ar    
   9 C9             1.2694     1.8502    -0.0001 C.ar    
  10 C10            1.7402    -1.8454    -0.0240 C.2     
  11 O11            2.9286    -2.1027    -0.0364 O.2     
  12 O12            0.8342    -2.8441    -0.0208 O.3     
  13 O13            8.1657     4.3852    -1.7822 O.3     
  14 C14            9.5405     3.9681    -1.7330 C.3     
  15 C15            9.6532     3.3221    -0.3319 C.3     
  16 C16            8.2211     2.8985    -0.0662 C.ar    
  17 C17            7.4211     3.5755    -0.9797 C.ar    
  18 C18            7.6707     2.0320     0.8535 C.ar    
  19 C19            6.3060     1.8177     0.8743 C.ar    
  20 C20            5.4899     2.4821    -0.0391 C.ar    
  21 C21            6.0478     3.3586    -0.9637 C.ar    
  22 Cl22           3.7801     4.9599    -0.0086 Cl      
  23 H23           -0.8206     1.8922     0.0164 H       
  24 H24           -0.8729    -0.6372     0.0070 H       
  25 H25            4.1975     0.1150    -0.0377 H       
  26 H26            1.1155     3.9910     0.0138 H       
  27 H27            1.1773    -3.7482    -0.0286 H       
  28 H28            9.7501     3.2365    -2.5134 H       
  29 H29           10.2075     4.8260    -1.8174 H       
  30 H30           10.3174     2.4582    -0.3535 H       
  31 H31            9.9875     4.0504     0.4071 H       
  32 H32            8.3075     1.5192     1.5591 H       
  33 H33            5.8741     1.1383     1.5943 H       
  34 H34            5.4129     3.8724    -1.6703 H       
@<TRIPOS>BOND
   1    1    2 1
   2    1    9 1
   3    1   23 1
   4    2    3 2
   5    2   24 1
   6    3    4 1
   7    3   10 1
   8    4    5 ar
   9    4    9 ar
  10    5    6 ar
  11    5   25 1
  12    6    7 ar
  13    6   20 1
  14    7    8 ar
  15    7   22 1
  16    8    9 ar
  17    8   26 1
  18   10   11 2
  19   10   12 1
  20   12   27 1
  21   13   14 1
  22   13   17 1
  23   14   15 1
  24   14   28 1
  25   14   29 1
  26   15   16 1
  27   15   30 1
  28   15   31 1
  29   16   17 ar
  30   16   18 ar
  31   17   21 ar
  32   18   19 ar
  33   18   32 1
  34   19   20 ar
  35   19   33 1
  36   20   21 ar
  37   21   34 1

#	End of record

