#	Name: ASD02198270
#	Creating user name:	WinNT
#	Creation time:	15. 06. 2019 20:19

#	Modifying user name:	WinNT
#	Modification time:	15. 06. 2019 20:19

#	Program:	/corina/corina34_cracker 3.40 0067  02.08.2006

@<TRIPOS>MOLECULE
ASD02198270
  42   44    0    0    0
SMALL
NO_CHARGES


@<TRIPOS>ATOM
   1 C1            -0.2438     1.2714    -0.0156 C.2     
   2 C2            -0.2091    -0.1017     0.0669 C.2     
   3 S3             1.3319     1.9224    -0.0033 S.3     
   4 C4             2.0600     0.3284     0.1148 C.2     
   5 C5             1.0773    -0.6327     0.1400 C.2     
   6 N6             1.3392    -1.9909     0.2286 N.pl3   
   7 C7             3.4440     0.0730     0.1751 C.2     
   8 O8            -1.3753     2.0054    -0.1010 O.3     
   9 C9            -1.2610     3.3597    -0.0752 C.ar    
  10 C10           -0.8131     4.0394    -1.1991 C.ar    
  11 C11           -1.5974     4.0625     1.0730 C.ar    
  12 C12           -1.4815     5.4380     1.0997 C.ar    
  13 C13           -1.0280     6.1182    -0.0228 C.ar    
  14 C14           -0.6964     5.4149    -1.1734 C.ar    
  15 N15           -0.9101     7.5137     0.0036 N.am    
  16 C16           -0.5307     8.1366     1.1370 C.2     
  17 O17           -0.3751     7.4985     2.1568 O.2     
  18 C18           -0.2996     9.6257     1.1373 C.3     
  19 C19            4.4095     1.1791    -0.0117 C.ar    
  20 O20            3.8466    -1.0591     0.3812 O.2     
  21 C21            5.6542     1.1365     0.6176 C.ar    
  22 C22            6.5497     2.1708     0.4394 C.ar    
  23 C23            6.2156     3.2489    -0.3608 C.ar    
  24 C24            4.9829     3.2974    -0.9872 C.ar    
  25 C25            4.0811     2.2664    -0.8224 C.ar    
  26 C26           -1.3894    -0.9126     0.0769 C.1     
  27 N27           -2.3257    -1.5558     0.0847 N.1     
  28 H28            2.2554    -2.3060     0.2766 H       
  29 H29            0.6064    -2.6262     0.2426 H       
  30 H30           -0.5556     3.4923    -2.0939 H       
  31 H31           -1.9504     3.5334     1.9458 H       
  32 H32           -1.7437     5.9849     1.9933 H       
  33 H33           -0.3433     5.9434    -2.0465 H       
  34 H34           -1.1017     8.0318    -0.7937 H       
  35 H35           -1.2194    10.1362     0.8516 H       
  36 H36           -0.0008     9.9469     2.1352 H       
  37 H37            0.4884     9.8713     0.4254 H       
  38 H38            5.9159     0.2958     1.2430 H       
  39 H39            7.5134     2.1390     0.9259 H       
  40 H40            6.9200     4.0562    -0.4968 H       
  41 H41            4.7278     4.1421    -1.6099 H       
  42 H42            3.1193     2.3052    -1.3122 H       
@<TRIPOS>BOND
   1    1    2 2
   2    1    3 1
   3    1    8 1
   4    2   26 1
   5    2    5 1
   6    3    4 1
   7    4    5 2
   8    4    7 1
   9    5    6 1
  10    6   28 1
  11    6   29 1
  12    7   19 1
  13    7   20 2
  14    8    9 1
  15    9   10 ar
  16    9   11 ar
  17   10   14 ar
  18   10   30 1
  19   11   12 ar
  20   11   31 1
  21   12   13 ar
  22   12   32 1
  23   13   14 ar
  24   13   15 1
  25   14   33 1
  26   15   16 am
  27   15   34 1
  28   16   17 2
  29   16   18 1
  30   18   35 1
  31   18   36 1
  32   18   37 1
  33   19   21 ar
  34   19   25 ar
  35   21   22 ar
  36   21   38 1
  37   22   23 ar
  38   22   39 1
  39   23   24 ar
  40   23   40 1
  41   24   25 ar
  42   24   41 1
  43   25   42 1
  44   26   27 3

#	End of record

