#	Name: ASD01913232
#	Creating user name:	WinNT
#	Creation time:	15. 06. 2019 20:01

#	Modifying user name:	WinNT
#	Modification time:	15. 06. 2019 20:01

#	Program:	/corina/corina34_cracker 3.40 0067  02.08.2006

@<TRIPOS>MOLECULE
ASD01913232
  44   47    0    0    0
SMALL
NO_CHARGES


@<TRIPOS>ATOM
   1 C1             0.7300     1.1799    -1.0048 C.3     
   2 N2             0.3534    -0.1342    -0.4727 N.am    
   3 C3             1.3090    -0.7960     0.4310 C.3     
   4 C4             2.5767    -1.0982    -0.3666 C.3     
   5 C5             3.0153     0.1084    -1.1540 C.ar    
   6 C6             4.3353     0.1489    -1.5878 C.ar    
   7 C7             4.8011     1.2198    -2.3206 C.ar    
   8 C8             3.9475     2.2657    -2.6296 C.ar    
   9 C9             2.6359     2.2287    -2.1964 C.ar    
  10 C10            2.1691     1.1520    -1.4551 C.ar    
  11 F11            4.3950     3.3169    -3.3505 F       
  12 C12           -0.8201    -0.7121    -0.7975 C.2     
  13 O13           -1.0611    -1.8458    -0.4313 O.2     
  14 C14           -1.8139     0.0327    -1.5991 C.ar    
  15 C15           -2.6096    -0.6399    -2.5242 C.ar    
  16 C16           -3.5451     0.0699    -3.2761 C.ar    
  17 C17           -3.6781     1.4519    -3.0963 C.ar    
  18 C18           -2.8843     2.1107    -2.1768 C.ar    
  19 C19           -1.9608     1.4112    -1.4261 C.ar    
  20 C20           -4.3670    -0.6127    -4.2297 C.1     
  21 C21           -5.0408    -1.1723    -5.0114 C.1     
  22 C22           -5.8627    -1.8548    -5.9649 C.ar    
  23 C23           -6.7980    -1.1366    -6.7148 C.ar    
  24 C24           -7.5836    -1.8107    -7.6316 C.ar    
  25 C25           -7.4114    -3.1815    -7.7720 C.ar    
  26 C26           -6.4671    -3.8307    -6.9980 C.ar    
  27 N27           -5.7267    -3.1665    -6.1345 N.ar    
  28 Cl28          -4.8415     2.3394    -4.0304 Cl      
  29 H29            0.0896     1.4253    -1.8520 H       
  30 H30            0.6076     1.9345    -0.2278 H       
  31 H31            1.5465    -0.1352     1.2647 H       
  32 H32            0.8792    -1.7247     0.8063 H       
  33 H33            3.3723    -1.3865     0.3205 H       
  34 H34            2.3807    -1.9222    -1.0527 H       
  35 H35            5.0023    -0.6660    -1.3484 H       
  36 H36            5.8286     1.2432    -2.6523 H       
  37 H37            1.9691     3.0437    -2.4361 H       
  38 H38           -2.5020    -1.7061    -2.6586 H       
  39 H39           -2.9898     3.1770    -2.0419 H       
  40 H40           -1.3470     1.9320    -0.7061 H       
  41 H41           -6.9061    -0.0705    -6.5798 H       
  42 H42           -8.3152    -1.2828    -8.2253 H       
  43 H43           -8.0101    -3.7359    -8.4795 H       
  44 H44           -6.3322    -4.8968    -7.1057 H       
@<TRIPOS>BOND
   1    1    2 1
   2    1   10 1
   3    1   29 1
   4    1   30 1
   5    2    3 1
   6    2   12 am
   7    3    4 1
   8    3   31 1
   9    3   32 1
  10    4    5 1
  11    4   33 1
  12    4   34 1
  13    5    6 ar
  14    5   10 ar
  15    6    7 ar
  16    6   35 1
  17    7    8 ar
  18    7   36 1
  19    8    9 ar
  20    8   11 1
  21    9   10 ar
  22    9   37 1
  23   12   13 2
  24   12   14 1
  25   14   15 ar
  26   14   19 ar
  27   15   16 ar
  28   15   38 1
  29   16   17 ar
  30   16   20 1
  31   17   18 ar
  32   17   28 1
  33   18   19 ar
  34   18   39 1
  35   19   40 1
  36   20   21 3
  37   21   22 1
  38   22   23 ar
  39   22   27 ar
  40   23   24 ar
  41   23   41 1
  42   24   25 ar
  43   24   42 1
  44   25   26 ar
  45   25   43 1
  46   26   27 ar
  47   26   44 1

#	End of record

