#	Name: ASD01881584
#	Creating user name:	WinNT
#	Creation time:	15. 06. 2019 19:42

#	Modifying user name:	WinNT
#	Modification time:	15. 06. 2019 19:42

#	Program:	/corina/corina34_cracker 3.40 0067  02.08.2006

@<TRIPOS>MOLECULE
ASD01881584
  43   45    0    0    0
SMALL
NO_CHARGES


@<TRIPOS>ATOM
   1 N1            -0.0154     1.2839     0.0091 N.pl3   
   2 N2             0.0021    -0.0041     0.0020 N.2     
   3 N3             1.2033    -0.4649    -0.0119 N.2     
   4 C4             2.0741     0.5645    -0.0147 C.ar    
   5 C5             1.2843     1.7298    -0.0009 C.ar    
   6 C6             3.4670     0.6759    -0.0271 C.ar    
   7 C7             4.0484     1.9285    -0.0255 C.ar    
   8 C8             3.2560     3.0739    -0.0118 C.ar    
   9 C9             1.8924     2.9784    -0.0004 C.ar    
  10 C10           -1.2133     2.1272     0.0196 C.3     
  11 C11           -1.6228     2.4135     1.4657 C.3     
  12 C12           -0.4829     3.1377     2.1848 C.3     
  13 C13           -2.8739     3.2942     1.4767 C.3     
  14 C14           -1.9212     1.0947     2.1818 C.3     
  15 Br15           4.5472    -0.8761    -0.0451 Br      
  16 O16            5.4033     2.0444    -0.0370 O.3     
  17 C17            5.9411     3.3683    -0.0346 C.3     
  18 C18            7.4465     3.2990    -0.0485 C.ar    
  19 C19            8.1262     3.2737    -1.2519 C.ar    
  20 C20            9.5070     3.2100    -1.2646 C.ar    
  21 C21           10.2081     3.1722    -0.0739 C.ar    
  22 C22            9.5285     3.1984     1.1296 C.ar    
  23 C23            8.1478     3.2664     1.1423 C.ar    
  24 H24            3.7236     4.0474    -0.0103 H       
  25 H25            1.2882     3.8735     0.0104 H       
  26 H26           -1.0007     3.0667    -0.4906 H       
  27 H27           -2.0254     1.6113    -0.4926 H       
  28 H28           -0.2704     4.0772     1.6746 H       
  29 H29           -0.7747     3.3417     3.2150 H       
  30 H30            0.4083     2.5103     2.1769 H       
  31 H31           -3.6860     2.7782     0.9644 H       
  32 H32           -3.1656     3.4981     2.5069 H       
  33 H33           -2.6613     4.2337     0.9665 H       
  34 H34           -1.0299     0.4673     2.1740 H       
  35 H35           -2.2129     1.2987     3.2121 H       
  36 H36           -2.7333     0.5788     1.6696 H       
  37 H37            5.5939     3.9031    -0.9187 H       
  38 H38            5.6098     3.8935     0.8612 H       
  39 H39            7.5784     3.3032    -2.1822 H       
  40 H40           10.0380     3.1895    -2.2048 H       
  41 H41           11.2869     3.1217    -0.0838 H       
  42 H42           10.0762     3.1685     2.0599 H       
  43 H43            7.6170     3.2907     2.0825 H       
@<TRIPOS>BOND
   1    1    2 1
   2    1    5 1
   3    1   10 1
   4    2    3 2
   5    3    4 1
   6    4    5 ar
   7    4    6 ar
   8    5    9 ar
   9    6    7 ar
  10    6   15 1
  11    7    8 ar
  12    7   16 1
  13    8    9 ar
  14    8   24 1
  15    9   25 1
  16   10   11 1
  17   10   26 1
  18   10   27 1
  19   11   12 1
  20   11   13 1
  21   11   14 1
  22   12   28 1
  23   12   29 1
  24   12   30 1
  25   13   31 1
  26   13   32 1
  27   13   33 1
  28   14   34 1
  29   14   35 1
  30   14   36 1
  31   16   17 1
  32   17   18 1
  33   17   37 1
  34   17   38 1
  35   18   19 ar
  36   18   23 ar
  37   19   20 ar
  38   19   39 1
  39   20   21 ar
  40   20   40 1
  41   21   22 ar
  42   21   41 1
  43   22   23 ar
  44   22   42 1
  45   23   43 1

#	End of record

