#	Name: ASD01914404
#	Creating user name:	WinNT
#	Creation time:	15. 06. 2019 20:03

#	Modifying user name:	WinNT
#	Modification time:	15. 06. 2019 20:03

#	Program:	/corina/corina34_cracker 3.40 0067  02.08.2006

@<TRIPOS>MOLECULE
ASD01914404
  49   53    0    0    0
SMALL
NO_CHARGES


@<TRIPOS>ATOM
   1 C1            -0.0167     1.3769     0.0096 C.ar    
   2 C2             0.0021    -0.0041     0.0020 C.ar    
   3 C3             1.2140    -0.6809    -0.0132 C.ar    
   4 C4             2.4051     0.0320    -0.0208 C.ar    
   5 C5             2.3825     1.4129    -0.0132 C.ar    
   6 C6             1.1726     2.0864     0.0021 C.ar    
   7 N7             1.2350    -2.0834    -0.0205 N.pl3   
   8 C8             0.5464    -2.9100     0.8264 C.2     
   9 C9             0.8560    -4.1831     0.4670 C.2     
  10 N10            1.7120    -4.1229    -0.5732 N.2     
  11 C11            1.9379    -2.8743    -0.8731 C.2     
  12 C12            0.3436    -5.4202     1.1060 C.ar    
  13 C13            0.7454    -6.6684     0.6343 C.ar    
  14 C14            0.2663    -7.8164     1.2316 C.ar    
  15 C15           -0.6129    -7.7293     2.2987 C.ar    
  16 C16           -1.0150    -6.4905     2.7710 C.ar    
  17 C17           -0.5364    -5.3373     2.1834 C.ar    
  18 C18            2.8398    -2.3875    -1.9780 C.3     
  19 O19            0.8611    -2.5115    -3.2581 O.2     
  20 C20            2.0441    -2.2445    -3.2497 C.2     
  21 N21            2.6471    -1.8198    -4.3778 N.am    
  22 F22            1.1524     3.4372     0.0100 F       
  23 F23           -1.0798    -8.8558     2.8803 F       
  24 C24            2.0239    -1.6274    -5.6891 C.3     
  25 C25            3.1008    -1.1384    -6.6445 C.2     
  26 C26            4.2563    -1.0449    -5.9785 C.2     
  27 C27            4.0569    -1.4517    -4.5370 C.3     
  28 N28            3.2027    -0.7874    -7.9280 N.2     
  29 C29            4.3542    -0.4153    -8.3568 C.2     
  30 S30            5.5016    -0.4768    -7.0934 S.3     
  31 C31            4.6507     0.0129    -9.7709 C.3     
  32 H32           -0.9594     1.9038     0.0169 H       
  33 H33           -0.9256    -0.5571     0.0083 H       
  34 H34            3.3489    -0.4929    -0.0323 H       
  35 H35            3.3090     1.9679    -0.0191 H       
  36 H36           -0.1145    -2.6085     1.6256 H       
  37 H37            1.4304    -6.7372    -0.1978 H       
  38 H38            0.5769    -8.7841     0.8664 H       
  39 H39           -1.7007    -6.4273     3.6029 H       
  40 H40           -0.8502    -4.3720     2.5525 H       
  41 H41            3.2622    -1.4210    -1.7030 H       
  42 H42            3.6454    -3.1054    -2.1322 H       
  43 H43            1.6147    -2.5726    -6.0460 H       
  44 H44            1.2300    -0.8842    -5.6154 H       
  45 H45            4.3049    -0.6187    -3.8792 H       
  46 H46            4.6865    -2.3104    -4.3039 H       
  47 H47            4.5004     1.0885    -9.8639 H       
  48 H48            5.6843    -0.2319   -10.0155 H       
  49 H49            3.9820    -0.5080   -10.4561 H       
@<TRIPOS>BOND
   1    1    2 ar
   2    1    6 ar
   3    1   32 1
   4    2    3 ar
   5    2   33 1
   6    3    4 ar
   7    3    7 1
   8    4    5 ar
   9    4   34 1
  10    5    6 ar
  11    5   35 1
  12    6   22 1
  13    7    8 1
  14    7   11 1
  15    8    9 2
  16    8   36 1
  17    9   10 1
  18    9   12 1
  19   10   11 2
  20   11   18 1
  21   12   13 ar
  22   12   17 ar
  23   13   14 ar
  24   13   37 1
  25   14   15 ar
  26   14   38 1
  27   15   16 ar
  28   15   23 1
  29   16   17 ar
  30   16   39 1
  31   17   40 1
  32   18   20 1
  33   18   41 1
  34   18   42 1
  35   19   20 2
  36   20   21 am
  37   21   24 1
  38   21   27 1
  39   24   25 1
  40   24   43 1
  41   24   44 1
  42   25   26 2
  43   25   28 1
  44   26   27 1
  45   26   30 1
  46   27   45 1
  47   27   46 1
  48   28   29 2
  49   29   30 1
  50   29   31 1
  51   31   47 1
  52   31   48 1
  53   31   49 1

#	End of record

