#	Name: ASD05872007
#	Creating user name:	WinNT
#	Creation time:	15. 06. 2019 21:04

#	Modifying user name:	WinNT
#	Modification time:	15. 06. 2019 21:04

#	Program:	/corina/corina34_cracker 3.40 0067  02.08.2006

@<TRIPOS>MOLECULE
ASD05872007
  77   82    0    0    0
SMALL
NO_CHARGES


@<TRIPOS>ATOM
   1 C1            -0.0168     1.3910     0.0097 C.ar    
   2 C2             0.0021    -0.0041     0.0020 C.ar    
   3 C3            -1.1844    -0.7121     0.0091 C.ar    
   4 C4            -2.3952    -0.0265     0.0243 C.ar    
   5 C5            -2.4170     1.3755     0.0325 C.ar    
   6 C6            -1.2170     2.0761     0.0306 C.ar    
   7 C7            -3.8126    -0.4422     0.0357 C.2     
   8 C8            -4.5350     0.7104     0.0493 C.2     
   9 O9            -3.7097     1.7640     0.0473 O.3     
  10 C10           -4.3346    -1.8171     0.0329 C.2     
  11 C11           -6.0398     0.7892     0.0643 C.3     
  12 O12           -6.5024     0.8064     1.4162 O.3     
  13 C13           -7.8475     0.8759     1.6079 C.ar    
  14 C14           -8.6979     0.9261     0.5206 C.ar    
  15 C15          -10.0730     0.9971     0.7245 C.ar    
  16 C16          -10.5975     1.0178     2.0243 C.ar    
  17 C17           -9.7313     0.9668     3.1102 C.ar    
  18 C18           -8.3674     0.8907     2.9030 C.ar    
  19 C19          -11.2439     1.0626    -0.1736 C.2     
  20 C20          -12.3316     1.1152     0.6417 C.2     
  21 O21          -11.9417     1.0884     1.9217 O.3     
  22 C22          -11.2355     1.0701    -1.6443 C.2     
  23 C23          -13.7620     1.1920     0.1735 C.3     
  24 N24           -4.5851    -2.4405    -1.1355 N.am    
  25 O25           -4.5403    -2.3918     1.0852 O.2     
  26 C26           -5.1076    -3.8158    -1.1635 C.3     
  27 C27           -6.3328    -3.8489    -2.0842 C.3     
  28 O28           -5.9881    -3.2749    -3.3473 O.3     
  29 C29           -5.6071    -1.8986    -3.2803 C.3     
  30 C30           -4.3501    -1.7636    -2.4208 C.3     
  31 N31          -11.1712     2.2391    -2.3119 N.am    
  32 O32          -11.2866     0.0211    -2.2581 O.2     
  33 C33          -11.1615     2.2718    -3.7830 C.3     
  34 C34          -12.2324     3.2634    -4.2517 C.3     
  35 O35          -12.0384     4.5145    -3.5876 O.3     
  36 C36          -12.1826     4.4514    -2.1667 C.3     
  37 C37          -11.1148     3.5209    -1.5912 C.3     
  38 O38           -7.5245     0.8406     3.9692 O.3     
  39 C39           -8.1192     0.8708     5.2683 C.3     
  40 O40            1.1896    -0.6677    -0.0129 O.3     
  41 S41            1.7432    -0.9771     1.3707 S.o2    
  42 O42            3.1393    -1.3443     1.1913 O.co2   
  43 O43            1.5947     0.2341     2.1624 O.co2   
  44 O44            0.9534    -2.0770     1.9021 O.co2   
  45 O45            1.1546     2.0819     0.0022 O.3     
  46 C46            1.0667     3.5081     0.0107 C.3     
  47 H47           -1.1721    -1.7920     0.0025 H       
  48 H48           -1.2222     3.1560     0.0372 H       
  49 H49           -6.3611     1.6999    -0.4413 H       
  50 H50           -6.4542    -0.0776    -0.4505 H       
  51 H51           -8.2979     0.9107    -0.4825 H       
  52 H52          -10.1246     0.9826     4.1159 H       
  53 H53          -14.1603     0.1843     0.0555 H       
  54 H54          -14.3564     1.7338     0.9092 H       
  55 H55          -13.8038     1.7136    -0.7827 H       
  56 H56           -4.3426    -4.4914    -1.5460 H       
  57 H57           -5.3963    -4.1194    -0.1572 H       
  58 H58           -6.6522    -4.8811    -2.2283 H       
  59 H59           -7.1430    -3.2761    -1.6329 H       
  60 H60           -5.4043    -1.5277    -4.2849 H       
  61 H61           -6.4146    -1.3187    -2.8333 H       
  62 H62           -4.1349    -0.7091    -2.2481 H       
  63 H63           -3.5067    -2.2327    -2.9275 H       
  64 H64          -10.1823     2.5946    -4.1366 H       
  65 H65          -11.3843     1.2789    -4.1737 H       
  66 H66          -12.1496     3.4064    -5.3291 H       
  67 H67          -13.2209     2.8726    -4.0105 H       
  68 H68          -12.0640     5.4491    -1.7441 H       
  69 H69          -13.1710     4.0649    -1.9179 H       
  70 H70          -11.3044     3.3561    -0.5306 H       
  71 H71          -10.1291     3.9670    -1.7235 H       
  72 H72           -8.6868     1.7938     5.3867 H       
  73 H73           -8.7867     0.0166     5.3822 H       
  74 H74           -7.3377     0.8249     6.0268 H       
  75 H75            2.0700     3.9341     0.0034 H       
  76 H76            0.5230     3.8439    -0.8723 H       
  77 H77            0.5400     3.8344     0.9075 H       
@<TRIPOS>BOND
   1    1    2 ar
   2    1   45 1
   3    1    6 ar
   4    2    3 ar
   5    2   40 1
   6    3    4 ar
   7    3   47 1
   8    4    5 ar
   9    4    7 1
  10    5    6 ar
  11    5    9 1
  12    6   48 1
  13    7    8 2
  14    7   10 1
  15    8    9 1
  16    8   11 1
  17   10   24 am
  18   10   25 2
  19   11   12 1
  20   11   49 1
  21   11   50 1
  22   12   13 1
  23   13   14 ar
  24   13   18 ar
  25   14   15 ar
  26   14   51 1
  27   15   16 ar
  28   15   19 1
  29   16   17 ar
  30   16   21 1
  31   17   18 ar
  32   17   52 1
  33   18   38 1
  34   19   20 2
  35   19   22 1
  36   20   21 1
  37   20   23 1
  38   22   31 am
  39   22   32 2
  40   23   53 1
  41   23   54 1
  42   23   55 1
  43   24   26 1
  44   24   30 1
  45   26   27 1
  46   26   56 1
  47   26   57 1
  48   27   28 1
  49   27   58 1
  50   27   59 1
  51   28   29 1
  52   29   30 1
  53   29   60 1
  54   29   61 1
  55   30   62 1
  56   30   63 1
  57   31   33 1
  58   31   37 1
  59   33   34 1
  60   33   64 1
  61   33   65 1
  62   34   35 1
  63   34   66 1
  64   34   67 1
  65   35   36 1
  66   36   37 1
  67   36   68 1
  68   36   69 1
  69   37   70 1
  70   37   71 1
  71   38   39 1
  72   39   72 1
  73   39   73 1
  74   39   74 1
  75   40   41 1
  76   41   42 ar
  77   41   43 ar
  78   41   44 ar
  79   45   46 1
  80   46   75 1
  81   46   76 1
  82   46   77 1

#	End of record

