#	Name: ASD01885505
#	Creating user name:	WinNT
#	Creation time:	15. 06. 2019 19:49

#	Modifying user name:	WinNT
#	Modification time:	15. 06. 2019 19:49

#	Program:	/corina/corina34_cracker 3.40 0067  02.08.2006

@<TRIPOS>MOLECULE
ASD01885505
  45   48    0    0    0
SMALL
NO_CHARGES


@<TRIPOS>ATOM
   1 C1             0.0010     1.2990    -0.3839 C.ar    
   2 C2             0.0221    -0.0703    -0.1127 C.ar    
   3 N3            -1.0877    -0.8482    -0.0736 N.2     
   4 C4            -2.0777    -0.8043    -0.8900 C.2     
   5 C5            -2.1317     0.1928    -2.0176 C.3     
   6 C6            -2.1635     1.5768    -1.4199 C.2     
   7 N7            -1.1587     2.0122    -0.6608 N.am    
   8 C8             1.1964     2.0128    -0.3888 C.ar    
   9 C9             2.4051     1.3696    -0.1311 C.ar    
  10 C10            2.4179    -0.0035     0.1342 C.ar    
  11 C11            1.2520    -0.7060     0.1426 C.ar    
  12 C12           -3.1895    -1.7541    -0.7196 C.ar    
  13 O13           -3.1126     2.3011    -1.6337 O.2     
  14 C14           -3.0943    -2.7840     0.2226 C.ar    
  15 C15           -4.1365    -3.6747     0.3832 C.ar    
  16 C16           -5.2789    -3.5570    -0.3834 C.ar    
  17 C17           -5.3887    -2.5332    -1.3288 C.ar    
  18 C18           -4.3442    -1.6264    -1.4937 C.ar    
  19 C19            3.6675     2.1344    -0.1385 C.2     
  20 N20            4.8353     1.5097     0.1112 N.am    
  21 O21            3.6538     3.3280    -0.3698 O.2     
  22 C22            6.0398     2.2129     0.0109 C.ar    
  23 C23            6.1006     3.5471     0.3922 C.ar    
  24 C24            7.2918     4.2388     0.2919 C.ar    
  25 C25            8.4232     3.6044    -0.1875 C.ar    
  26 C26            8.3661     2.2762    -0.5680 C.ar    
  27 C27            7.1794     1.5771    -0.4648 C.ar    
  28 C28           -6.5747    -2.4136    -2.1224 C.1     
  29 N29           -7.5155    -2.3187    -2.7519 N.1     
  30 H30           -1.2487     0.0842    -2.6473 H       
  31 H31           -3.0305     0.0279    -2.6117 H       
  32 H32           -1.2442     2.8951    -0.2682 H       
  33 H33            1.1867     3.0730    -0.5944 H       
  34 H34            3.3529    -0.5066     0.3320 H       
  35 H35            1.2707    -1.7660     0.3486 H       
  36 H36           -2.2035    -2.8825     0.8251 H       
  37 H37           -4.0579    -4.4679     1.1120 H       
  38 H38           -6.0899    -4.2582    -0.2524 H       
  39 H39           -4.4238    -0.8335    -2.2227 H       
  40 H40            4.8403     0.5722     0.3604 H       
  41 H41            5.2173     4.0432     0.7664 H       
  42 H42            7.3397     5.2763     0.5879 H       
  43 H43            9.3534     4.1477    -0.2653 H       
  44 H44            9.2515     1.7836    -0.9420 H       
  45 H45            7.1355     0.5397    -0.7618 H       
@<TRIPOS>BOND
   1    1    2 ar
   2    1    8 ar
   3    1    7 1
   4    2    3 1
   5    2   11 ar
   6    3    4 2
   7    4    5 1
   8    4   12 1
   9    5    6 1
  10    5   30 1
  11    5   31 1
  12    6    7 am
  13    6   13 2
  14    7   32 1
  15    8    9 ar
  16    8   33 1
  17    9   10 ar
  18    9   19 1
  19   10   11 ar
  20   10   34 1
  21   11   35 1
  22   12   14 ar
  23   12   18 ar
  24   14   15 ar
  25   14   36 1
  26   15   16 ar
  27   15   37 1
  28   16   17 ar
  29   16   38 1
  30   17   28 1
  31   17   18 ar
  32   18   39 1
  33   19   20 am
  34   19   21 2
  35   20   22 1
  36   20   40 1
  37   22   23 ar
  38   22   27 ar
  39   23   24 ar
  40   23   41 1
  41   24   25 ar
  42   24   42 1
  43   25   26 ar
  44   25   43 1
  45   26   27 ar
  46   26   44 1
  47   27   45 1
  48   28   29 3

#	End of record

