#	Name: ASD01881528
#	Creating user name:	WinNT
#	Creation time:	15. 06. 2019 19:42

#	Modifying user name:	WinNT
#	Modification time:	15. 06. 2019 19:42

#	Program:	/corina/corina34_cracker 3.40 0067  02.08.2006

@<TRIPOS>MOLECULE
ASD01881528
  46   49    0    0    0
SMALL
NO_CHARGES


@<TRIPOS>ATOM
   1 O1            -0.0164     1.3548     0.0095 O.3     
   2 C2             0.0021    -0.0041     0.0020 C.ar    
   3 C3            -1.1891    -0.7152     0.0096 C.ar    
   4 C4             1.2121    -0.6824    -0.0189 C.ar    
   5 C5             1.2281    -2.0638    -0.0264 C.ar    
   6 C6             0.0396    -2.7702    -0.0131 C.ar    
   7 C7            -1.1677    -2.0964     0.0020 C.ar    
   8 C8             0.0601    -4.2770    -0.0213 C.3     
   9 C9             0.8060    -4.7837     1.2147 C.3     
  10 C10           -1.3752    -4.8067    -0.0036 C.3     
  11 C11            0.7702    -4.7706    -1.2835 C.3     
  12 C12            1.2479     2.0208     0.0010 C.3     
  13 C13            1.0269     3.5347     0.0112 C.3     
  14 C14            2.3731     4.2866     0.1284 C.3     
  15 N15            2.1512     5.4610    -0.7333 N.pl3   
  16 C16            1.0545     5.2195    -1.5074 C.2     
  17 O17            0.5331     3.9886    -1.2615 O.3     
  18 C18            2.6307     6.7167    -1.0531 C.ar    
  19 C19            1.7704     7.2183    -2.0432 C.ar    
  20 N20            0.8319     6.2655    -2.2754 N.2     
  21 C21            3.6996     7.4826    -0.6114 C.ar    
  22 C22            3.9138     8.7357    -1.1463 C.ar    
  23 C23            3.0663     9.2365    -2.1238 C.ar    
  24 C24            2.0007     8.4903    -2.5738 C.ar    
  25 H25           -2.1324    -0.1893     0.0217 H       
  26 H26            2.1406    -0.1311    -0.0297 H       
  27 H27            2.1698    -2.5923    -0.0431 H       
  28 H28           -2.0947    -2.6505     0.0127 H       
  29 H29            0.3001    -4.4321     2.1139 H       
  30 H30            0.8208    -5.8736     1.2087 H       
  31 H31            1.8285    -4.4064     1.2020 H       
  32 H32           -1.9067    -4.4457    -0.8841 H       
  33 H33           -1.3605    -5.8965    -0.0095 H       
  34 H34           -1.8811    -4.4551     0.8956 H       
  35 H35            1.7927    -4.3932    -1.2962 H       
  36 H36            0.7850    -5.8604    -1.2895 H       
  37 H37            0.2387    -4.4096    -2.1641 H       
  38 H38            1.8173     1.7308     0.8840 H       
  39 H39            1.8003     1.7403    -0.8958 H       
  40 H40            0.3514     3.8209     0.8174 H       
  41 H41            2.5592     4.5908     1.1584 H       
  42 H42            3.1927     3.6763    -0.2511 H       
  43 H43            4.3625     7.0986     0.1498 H       
  44 H44            4.7464     9.3311    -0.8017 H       
  45 H45            3.2438    10.2195    -2.5346 H       
  46 H46            1.3452     8.8864    -3.3353 H       
@<TRIPOS>BOND
   1    1    2 1
   2    1   12 1
   3    2    3 ar
   4    2    4 ar
   5    3    7 ar
   6    3   25 1
   7    4    5 ar
   8    4   26 1
   9    5    6 ar
  10    5   27 1
  11    6    7 ar
  12    6    8 1
  13    7   28 1
  14    8    9 1
  15    8   10 1
  16    8   11 1
  17    9   29 1
  18    9   30 1
  19    9   31 1
  20   10   32 1
  21   10   33 1
  22   10   34 1
  23   11   35 1
  24   11   36 1
  25   11   37 1
  26   12   13 1
  27   12   38 1
  28   12   39 1
  29   13   14 1
  30   13   17 1
  31   13   40 1
  32   14   15 1
  33   14   41 1
  34   14   42 1
  35   15   16 1
  36   15   18 1
  37   16   17 1
  38   16   20 2
  39   18   19 ar
  40   18   21 ar
  41   19   20 1
  42   19   24 ar
  43   21   22 ar
  44   21   43 1
  45   22   23 ar
  46   22   44 1
  47   23   24 ar
  48   23   45 1
  49   24   46 1

#	End of record

