#	Name: ASD02030124
#	Creating user name:	WinNT
#	Creation time:	15. 06. 2019 20:14

#	Modifying user name:	WinNT
#	Modification time:	15. 06. 2019 20:14

#	Program:	/corina/corina34_cracker 3.40 0067  02.08.2006

@<TRIPOS>MOLECULE
ASD02030124
  62   65    0    0    0
SMALL
NO_CHARGES


@<TRIPOS>ATOM
   1 N1             0.7747     0.8377    -0.5476 N.am    
   2 C2             0.6163    -0.5749    -0.1743 C.3     
   3 C3            -0.3338    -0.6609     1.0267 C.3     
   4 N4            -1.5351     0.1331     0.7329 N.am    
   5 C5            -1.3767     1.5456     0.3596 C.3     
   6 C6            -0.4270     1.6331    -0.8359 C.3     
   7 C7             1.9997     1.3951    -0.6187 C.2     
   8 C8             3.1892     0.6210    -0.2051 C.2     
   9 N9             4.4170     1.0832    -0.1057 N.2     
  10 N10            3.2061    -0.6791     0.1417 N.2     
  11 C11            4.4427    -0.9860     0.4405 C.2     
  12 N12            5.1887     0.1265     0.2811 N.pl3   
  13 O13            2.1264     2.5345    -1.0231 O.2     
  14 C14           -2.7601    -0.4244     0.8041 C.2     
  15 C15           -3.9649     0.4112     0.6128 C.ar    
  16 O16           -2.8745    -1.6141     1.0256 O.2     
  17 C17           -0.0338     3.0925    -1.0736 C.3     
  18 C18           -1.1170     1.0741    -2.0818 C.3     
  19 C19            6.5695     0.2251     0.4989 C.ar    
  20 C20            7.2210     1.4346     0.2975 C.ar    
  21 C21            8.5820     1.5285     0.5130 C.ar    
  22 C22            9.2959     0.4195     0.9285 C.ar    
  23 C23            8.6499    -0.7864     1.1299 C.ar    
  24 C24            7.2880    -0.8852     0.9221 C.ar    
  25 C25           -5.0949    -0.1216    -0.0076 C.ar    
  26 C26           -6.2198     0.6669    -0.1829 C.ar    
  27 C27           -6.2210     1.9833     0.2575 C.ar    
  28 C28           -5.1014     2.5128     0.8727 C.ar    
  29 C29           -3.9775     1.7344     1.0575 C.ar    
  30 O30           -7.3230     0.1517    -0.7869 O.3     
  31 C31           -8.4802     0.9880    -0.8464 C.3     
  32 C32           -8.4583     1.7972    -2.1448 C.3     
  33 C33           -9.7394     0.1199    -0.8078 C.3     
  34 H34            0.1966    -1.1301    -1.0132 H       
  35 H35            1.5860    -0.9929     0.0958 H       
  36 H36           -0.6148    -1.7002     1.1971 H       
  37 H37            0.1601    -0.2628     1.9131 H       
  38 H38           -2.3465     1.9636     0.0895 H       
  39 H39           -0.9571     2.1009     1.1985 H       
  40 H40            4.8005    -1.9536     0.7599 H       
  41 H41            0.5707     3.4465    -0.2385 H       
  42 H42            0.5415     3.1681    -1.9963 H       
  43 H43           -0.9334     3.7025    -1.1553 H       
  44 H44           -2.0160     1.6541    -2.2903 H       
  45 H45           -0.4383     1.1375    -2.9323 H       
  46 H46           -1.3884     0.0324    -1.9103 H       
  47 H47            6.6641     2.3009    -0.0277 H       
  48 H48            9.0893     2.4691     0.3564 H       
  49 H49           10.3602     0.4953     1.0956 H       
  50 H50            9.2101    -1.6509     1.4545 H       
  51 H51            6.7840    -1.8272     1.0799 H       
  52 H52           -5.0924    -1.1458    -0.3504 H       
  53 H53           -7.0994     2.5962     0.1189 H       
  54 H54           -5.1082     3.5378     1.2129 H       
  55 H55           -3.1049     2.1510     1.5387 H       
  56 H56           -8.4814     1.6680     0.0055 H       
  57 H57           -9.3410     2.4352    -2.1902 H       
  58 H58           -7.5612     2.4158    -2.1723 H       
  59 H59           -8.4572     1.1173    -2.9967 H       
  60 H60           -9.7550    -0.4566     0.1172 H       
  61 H61          -10.6221     0.7578    -0.8532 H       
  62 H62           -9.7383    -0.5601    -1.6597 H       
@<TRIPOS>BOND
   1    1    2 1
   2    1    7 am
   3    1    6 1
   4    2    3 1
   5    2   34 1
   6    2   35 1
   7    3    4 1
   8    3   36 1
   9    3   37 1
  10    4    5 1
  11    4   14 am
  12    5    6 1
  13    5   38 1
  14    5   39 1
  15    6   17 1
  16    6   18 1
  17    7    8 1
  18    7   13 2
  19    8    9 2
  20    8   10 1
  21    9   12 1
  22   10   11 2
  23   11   12 1
  24   11   40 1
  25   12   19 1
  26   14   15 1
  27   14   16 2
  28   15   25 ar
  29   15   29 ar
  30   17   41 1
  31   17   42 1
  32   17   43 1
  33   18   44 1
  34   18   45 1
  35   18   46 1
  36   19   20 ar
  37   19   24 ar
  38   20   21 ar
  39   20   47 1
  40   21   22 ar
  41   21   48 1
  42   22   23 ar
  43   22   49 1
  44   23   24 ar
  45   23   50 1
  46   24   51 1
  47   25   26 ar
  48   25   52 1
  49   26   27 ar
  50   26   30 1
  51   27   28 ar
  52   27   53 1
  53   28   29 ar
  54   28   54 1
  55   29   55 1
  56   30   31 1
  57   31   32 1
  58   31   33 1
  59   31   56 1
  60   32   57 1
  61   32   58 1
  62   32   59 1
  63   33   60 1
  64   33   61 1
  65   33   62 1

#	End of record

