#	Name: ASD01180340
#	Creating user name:	WinNT
#	Creation time:	15. 06. 2019 19:07

#	Modifying user name:	WinNT
#	Modification time:	15. 06. 2019 19:07

#	Program:	/corina/corina34_cracker 3.40 0067  02.08.2006

@<TRIPOS>MOLECULE
ASD01180340
  70   72    0    0    0
SMALL
NO_CHARGES


@<TRIPOS>ATOM
   1 C1             0.9202     1.5123    -0.0587 C.2     
   2 C2             0.8196     0.0087    -0.0541 C.3     
   3 C3             2.2221    -0.5966    -0.1417 C.3     
   4 O4             2.0026     2.0451    -0.1253 O.2     
   5 O5            -0.1929     2.2596     0.0055 O.3     
   6 C6             3.2416    -2.8087    -0.2072 C.2     
   7 C7             3.1429    -4.2838    -0.2026 C.ar    
   8 C8             4.2961    -5.0747    -0.2750 C.ar    
   9 C9             4.1493    -6.4504    -0.2668 C.ar    
  10 C10            2.8801    -6.9955    -0.1882 C.ar    
  11 N11            1.8111    -6.2253    -0.1212 N.ar    
  12 C12            1.8995    -4.9113    -0.1203 C.ar    
  13 O13            4.3305    -2.2726    -0.2742 O.2     
  14 N14            2.1243    -2.0583    -0.1371 N.am    
  15 C15            2.7160    -8.4935    -0.1796 C.3     
  16 C16            1.9132    -8.9115     1.0539 C.3     
  17 C17            2.7192    -8.6002     2.3166 C.3     
  18 C18            1.8651    -8.8924     3.5519 C.3     
  19 C19            3.9759    -9.4724     2.3474 C.3     
  20 N20            2.0058    -8.9139    -1.3900 N.pl3   
  21 C21            2.6101   -12.7341    -2.9389 C.ar    
  22 C22            1.8370   -11.8105    -3.6409 C.ar    
  23 C23            1.6382   -10.5471    -3.1265 C.ar    
  24 C24            2.2080   -10.1937    -1.9087 C.ar    
  25 C25            2.9793   -11.1132    -1.2071 C.ar    
  26 C26            3.1806   -12.3777    -1.7179 C.ar    
  27 C27            2.8204   -14.0962    -3.4876 C.ar    
  28 C28            4.0970   -14.5087    -3.8650 C.ar    
  29 C29            4.2868   -15.7771    -4.3749 C.ar    
  30 C30            3.2129   -16.6382    -4.5116 C.ar    
  31 C31            1.9436   -16.2339    -4.1390 C.ar    
  32 C32            1.7431   -14.9700    -3.6221 C.ar    
  33 C33            3.4266   -18.0220    -5.0690 C.3     
  34 F34            3.7049   -18.9082    -4.0230 F       
  35 F35            2.2708   -18.4387    -5.7382 F       
  36 F36            4.5022   -18.0035    -5.9633 F       
  37 C37            4.0164   -13.3742    -0.9566 C.3     
  38 C38            1.2195   -12.1929    -4.9613 C.3     
  39 H39            0.3387    -0.3205     0.8671 H       
  40 H40            0.2286    -0.3186    -0.9095 H       
  41 H41            2.7029    -0.2675    -1.0628 H       
  42 H42            2.8131    -0.2694     0.7137 H       
  43 H43           -0.0781     3.2197    -0.0004 H       
  44 H44            5.2750    -4.6225    -0.3359 H       
  45 H45            5.0163    -7.0921    -0.3216 H       
  46 H46            1.0015    -4.3143    -0.0598 H       
  47 H47            1.2553    -2.4861    -0.0837 H       
  48 H48            3.6977    -8.9664    -0.1516 H       
  49 H49            0.9724    -8.3616     1.0786 H       
  50 H50            1.7078    -9.9810     1.0085 H       
  51 H51            3.0067    -7.5487     2.3141 H       
  52 H52            1.5777    -9.9439     3.5544 H       
  53 H53            2.4393    -8.6706     4.4514 H       
  54 H54            0.9698    -8.2711     3.5299 H       
  55 H55            4.6311    -9.1948     1.5217 H       
  56 H56            4.4987    -9.3231     3.2921 H       
  57 H57            3.6931   -10.5206     2.2504 H       
  58 H58            1.3950    -8.3028    -1.8309 H       
  59 H59            1.0396    -9.8312    -3.6702 H       
  60 H60            3.4213   -10.8365    -0.2613 H       
  61 H61            4.9360   -13.8371    -3.7591 H       
  62 H62            5.2755   -16.0977    -4.6681 H       
  63 H63            1.1087   -16.9101    -4.2485 H       
  64 H64            0.7525   -14.6570    -3.3270 H       
  65 H65            5.0586   -13.2832    -1.2625 H       
  66 H66            3.9329   -13.1771     0.1122 H       
  67 H67            3.6621   -14.3829    -1.1689 H       
  68 H68            0.2300   -12.6169    -4.7904 H       
  69 H69            1.1316   -11.3077    -5.5912 H       
  70 H70            1.8502   -12.9307    -5.4573 H       
@<TRIPOS>BOND
   1    1    2 1
   2    1    4 2
   3    1    5 1
   4    2    3 1
   5    2   39 1
   6    2   40 1
   7    3   14 1
   8    3   41 1
   9    3   42 1
  10    5   43 1
  11    6    7 1
  12    6   13 2
  13    6   14 am
  14    7    8 ar
  15    7   12 ar
  16    8    9 ar
  17    8   44 1
  18    9   10 ar
  19    9   45 1
  20   10   11 ar
  21   10   15 1
  22   11   12 ar
  23   12   46 1
  24   14   47 1
  25   15   16 1
  26   15   20 1
  27   15   48 1
  28   16   17 1
  29   16   49 1
  30   16   50 1
  31   17   18 1
  32   17   19 1
  33   17   51 1
  34   18   52 1
  35   18   53 1
  36   18   54 1
  37   19   55 1
  38   19   56 1
  39   19   57 1
  40   20   24 1
  41   20   58 1
  42   21   22 ar
  43   21   26 ar
  44   21   27 1
  45   22   23 ar
  46   22   38 1
  47   23   24 ar
  48   23   59 1
  49   24   25 ar
  50   25   26 ar
  51   25   60 1
  52   26   37 1
  53   27   28 ar
  54   27   32 ar
  55   28   29 ar
  56   28   61 1
  57   29   30 ar
  58   29   62 1
  59   30   31 ar
  60   30   33 1
  61   31   32 ar
  62   31   63 1
  63   32   64 1
  64   33   34 1
  65   33   35 1
  66   33   36 1
  67   37   65 1
  68   37   66 1
  69   37   67 1
  70   38   68 1
  71   38   69 1
  72   38   70 1

#	End of record

