#	Name: ASD01915734
#	Creating user name:	WinNT
#	Creation time:	15. 06. 2019 20:06

#	Modifying user name:	WinNT
#	Modification time:	15. 06. 2019 20:06

#	Program:	/corina/corina34_cracker 3.40 0067  02.08.2006

@<TRIPOS>MOLECULE
ASD01915734
  44   47    0    0    0
SMALL
NO_CHARGES


@<TRIPOS>ATOM
   1 C1            -0.0042     1.4684     0.2347 C.2     
   2 N2             0.0661     0.1190    -0.0301 N.pl3   
   3 C3            -1.1430    -0.6638    -0.3127 C.3     
   4 C4            -2.3281    -0.0486     0.4298 C.3     
   5 N5            -2.4044     1.3988     0.2637 N.am    
   6 C6            -1.2934     2.1742     0.2860 C.2     
   7 C7             1.2763     1.9057     0.4255 C.2     
   8 C8             2.0758     0.7648     0.2734 C.2     
   9 N9             1.2864    -0.2505     0.0108 N.2     
  10 C10            3.5774     0.7130     0.3897 C.3     
  11 O11            4.0779     2.0190     0.6829 O.3     
  12 C12            5.4242     2.1474     0.8208 C.ar    
  13 O13           -1.3589     3.3874     0.3453 O.2     
  14 C14            5.9777     3.3870     1.1057 C.ar    
  15 C15            6.2452     1.0380     0.6825 C.ar    
  16 C16            7.6131     1.1699     0.8228 C.ar    
  17 C17            8.1647     2.4088     1.1020 C.ar    
  18 C18            7.3460     3.5161     1.2456 C.ar    
  19 C19           -3.6531     1.9998     0.0772 C.ar    
  20 C20           -4.5847     2.0025     1.1071 C.ar    
  21 C21           -3.9618     2.6003    -1.1366 C.ar    
  22 C22           -5.1957     3.1940    -1.3188 C.ar    
  23 C23           -6.1242     3.1915    -0.2948 C.ar    
  24 C24           -5.8186     2.5983     0.9192 C.ar    
  25 F25            9.5026     2.5363     1.2399 F       
  26 C26           -1.4202    -0.6501    -1.8173 C.3     
  27 F27           -6.7280     2.5974     1.9183 F       
  28 H28           -0.9978    -1.6911     0.0217 H       
  29 H29           -3.2489    -0.4952     0.0548 H       
  30 H30           -2.2353    -0.2768     1.4916 H       
  31 H31            1.6016     2.9119     0.6452 H       
  32 H32            3.8564     0.0287     1.1910 H       
  33 H33            4.0029     0.3636    -0.5510 H       
  34 H34            5.3393     4.2508     1.2178 H       
  35 H35            5.8151     0.0714     0.4654 H       
  36 H36            8.2526     0.3063     0.7151 H       
  37 H37            7.7776     4.4819     1.4633 H       
  38 H38           -4.3461     1.5396     2.0533 H       
  39 H39           -3.2373     2.6034    -1.9375 H       
  40 H40           -5.4352     3.6611    -2.2627 H       
  41 H41           -7.0881     3.6564    -0.4401 H       
  42 H42           -0.5732    -1.0864    -2.3468 H       
  43 H43           -2.3182    -1.2315    -2.0266 H       
  44 H44           -1.5668     0.3773    -2.1504 H       
@<TRIPOS>BOND
   1    1    2 1
   2    1    7 2
   3    1    6 1
   4    2    3 1
   5    2    9 1
   6    3    4 1
   7    3   26 1
   8    3   28 1
   9    4    5 1
  10    4   29 1
  11    4   30 1
  12    5    6 am
  13    5   19 1
  14    6   13 2
  15    7    8 1
  16    7   31 1
  17    8    9 2
  18    8   10 1
  19   10   11 1
  20   10   32 1
  21   10   33 1
  22   11   12 1
  23   12   14 ar
  24   12   15 ar
  25   14   18 ar
  26   14   34 1
  27   15   16 ar
  28   15   35 1
  29   16   17 ar
  30   16   36 1
  31   17   18 ar
  32   17   25 1
  33   18   37 1
  34   19   20 ar
  35   19   21 ar
  36   20   24 ar
  37   20   38 1
  38   21   22 ar
  39   21   39 1
  40   22   23 ar
  41   22   40 1
  42   23   24 ar
  43   23   41 1
  44   24   27 1
  45   26   42 1
  46   26   43 1
  47   26   44 1

#	End of record

