#	Name: ASD01901063
#	Creating user name:	WinNT
#	Creation time:	15. 06. 2019 19:53

#	Modifying user name:	WinNT
#	Modification time:	15. 06. 2019 19:53

#	Program:	/corina/corina34_cracker 3.40 0067  02.08.2006

@<TRIPOS>MOLECULE
ASD01901063
  40   42    0    0    0
SMALL
NO_CHARGES


@<TRIPOS>ATOM
   1 C1            -0.2942     1.2283    -0.1625 C.ar    
   2 C2            -0.2167    -0.0185    -0.7795 C.ar    
   3 C3             0.9634    -0.7399    -0.6933 C.ar    
   4 C4             2.0254    -0.1892     0.0073 C.ar    
   5 C5             1.8778     1.0563     0.5962 C.ar    
   6 N6             0.7464     1.7197     0.4988 N.ar    
   7 C7            -1.5465     2.0148    -0.2506 C.2     
   8 O8            -2.5006     1.5718    -0.8591 O.2     
   9 N9            -1.6276     3.2215     0.3442 N.am    
  10 C10           -2.7795     4.0003     0.1919 C.ar    
  11 C11           -2.7056     5.3837     0.3074 C.ar    
  12 C12           -3.8456     6.1496     0.1558 C.ar    
  13 C13           -5.0588     5.5410    -0.1101 C.ar    
  14 C14           -5.1352     4.1654    -0.2255 C.ar    
  15 C15           -3.9983     3.3939    -0.0808 C.ar    
  16 S16           -6.5105     6.5211    -0.3016 S.o2    
  17 O17           -7.6105     5.6701    -0.0100 O.2     
  18 O18           -6.2661     7.7392     0.3880 O.2     
  19 N19           -6.6319     6.9088    -1.9070 N.am    
  20 C20           -6.7459     5.8965    -2.8637 C.ar    
  21 C21           -6.1380     6.0399    -4.1057 C.ar    
  22 C22           -6.2530     5.0368    -5.0489 C.ar    
  23 C23           -6.9718     3.8915    -4.7582 C.ar    
  24 C24           -7.5777     3.7464    -3.5240 C.ar    
  25 C25           -7.4617     4.7426    -2.5739 C.ar    
  26 Cl26          -5.2362     7.4775    -4.4713 Cl      
  27 Cl27          -1.1832     6.1478     0.6423 Cl      
  28 H28           -1.0643    -0.4172    -1.3171 H       
  29 H29            1.0536    -1.7092    -1.1609 H       
  30 H30            2.9587    -0.7259     0.0934 H       
  31 H31            2.7031     1.4880     1.1430 H       
  32 H32           -0.8872     3.5499     0.8779 H       
  33 H33           -3.7894     7.2244     0.2454 H       
  34 H34           -6.0843     3.6936    -0.4328 H       
  35 H35           -4.0585     2.3197    -0.1752 H       
  36 H36           -6.6239     7.8386    -2.1833 H       
  37 H37           -5.7815     5.1473    -6.0143 H       
  38 H38           -7.0603     3.1088    -5.4971 H       
  39 H39           -8.1385     2.8508    -3.3006 H       
  40 H40           -7.9314     4.6261    -1.6084 H       
@<TRIPOS>BOND
   1    1    2 ar
   2    1    6 ar
   3    1    7 1
   4    2    3 ar
   5    2   28 1
   6    3    4 ar
   7    3   29 1
   8    4    5 ar
   9    4   30 1
  10    5    6 ar
  11    5   31 1
  12    7    8 2
  13    7    9 am
  14    9   10 1
  15    9   32 1
  16   10   11 ar
  17   10   15 ar
  18   11   12 ar
  19   11   27 1
  20   12   13 ar
  21   12   33 1
  22   13   14 ar
  23   13   16 1
  24   14   15 ar
  25   14   34 1
  26   15   35 1
  27   16   17 2
  28   16   18 2
  29   16   19 am
  30   19   20 1
  31   19   36 1
  32   20   21 ar
  33   20   25 ar
  34   21   22 ar
  35   21   26 1
  36   22   23 ar
  37   22   37 1
  38   23   24 ar
  39   23   38 1
  40   24   25 ar
  41   24   39 1
  42   25   40 1

#	End of record

