#	Name: ASD01814375
#	Creating user name:	WinNT
#	Creation time:	15. 06. 2019 19:32

#	Modifying user name:	WinNT
#	Modification time:	15. 06. 2019 19:32

#	Program:	/corina/corina34_cracker 3.40 0067  02.08.2006

@<TRIPOS>MOLECULE
ASD01814375
  56   60    0    0    0
SMALL
NO_CHARGES


@<TRIPOS>ATOM
   1 C1            -0.1927     1.1826     0.5697 C.ar    
   2 C2            -0.0849    -0.2018     0.6523 C.ar    
   3 C3             1.1232    -0.8203     0.5254 C.ar    
   4 C4             2.2785    -0.0539     0.3082 C.ar    
   5 C5             2.1648     1.3553     0.2246 C.ar    
   6 C6             0.9100     1.9580     0.3592 C.ar    
   7 C7             3.5422    -0.6660     0.1725 C.ar    
   8 C8             4.6587     0.0713    -0.0377 C.ar    
   9 C9             4.6011     1.4708    -0.1286 C.ar    
  10 C10            3.3724     2.1440    -0.0017 C.ar    
  11 C11            5.8049     2.2801    -0.3573 C.2     
  12 N12            5.6492     3.6224    -0.4310 N.am    
  13 C13            4.4207     4.1814    -0.2960 C.2     
  14 N14            3.3410     3.4841    -0.0934 N.2     
  15 C15            3.6518    -2.1662     0.2636 C.3     
  16 O16            6.9013     1.7633    -0.4756 O.2     
  17 C17            6.8164     4.4783    -0.6579 C.3     
  18 C18            6.6231     5.2719    -1.9516 C.3     
  19 C19            5.3689     6.1403    -1.8347 C.3     
  20 C20            5.5268     7.1090    -0.6610 C.3     
  21 C21            5.7201     6.3154     0.6328 C.3     
  22 C22            6.9743     5.4470     0.5159 C.3     
  23 C23            3.4623    -2.7678    -1.1051 C.2     
  24 O24            6.4756     4.3672    -3.0479 O.3     
  25 C25            4.5377    -3.0366    -1.8816 C.2     
  26 N26            4.3828    -3.5785    -3.1167 N.am    
  27 C27            3.1564    -3.8607    -3.5959 C.2     
  28 C28            2.0182    -3.5946    -2.8158 C.2     
  29 C29            2.1721    -3.0547    -1.5727 C.2     
  30 C30            5.5633    -3.8591    -3.9376 C.3     
  31 O31            3.0333    -4.3474    -4.7085 O.2     
  32 H32           -1.1617     1.6491     0.6690 H       
  33 H33           -0.9714    -0.7955     0.8198 H       
  34 H34            1.1910    -1.8961     0.5922 H       
  35 H35            0.8143     3.0319     0.2964 H       
  36 H36            5.6116    -0.4271    -0.1370 H       
  37 H37            4.3346     5.2561    -0.3598 H       
  38 H38            4.6363    -2.4360     0.6459 H       
  39 H39            2.8838    -2.5464     0.9372 H       
  40 H40            7.7099     3.8596    -0.7412 H       
  41 H41            7.4915     5.9087    -2.1204 H       
  42 H42            5.2312     6.7057    -2.7564 H       
  43 H43            4.5005     5.5035    -1.6659 H       
  44 H44            6.3952     7.7458    -0.8298 H       
  45 H45            4.6333     7.7276    -0.5777 H       
  46 H46            5.8326     7.0055     1.4689 H       
  47 H47            4.8517     5.6786     0.8015 H       
  48 H48            7.1120     4.8816     1.4375 H       
  49 H49            7.8427     6.0838     0.3471 H       
  50 H50            6.3489     4.8019    -3.9023 H       
  51 H51            5.5296    -2.8175    -1.5149 H       
  52 H52            1.0321    -3.8185    -3.1952 H       
  53 H53            1.3092    -2.8433    -0.9586 H       
  54 H54            5.9145    -4.8709    -3.7352 H       
  55 H55            5.3022    -3.7693    -4.9921 H       
  56 H56            6.3515    -3.1458    -3.6965 H       
@<TRIPOS>BOND
   1    1    2 ar
   2    1    6 ar
   3    1   32 1
   4    2    3 ar
   5    2   33 1
   6    3    4 ar
   7    3   34 1
   8    4    5 ar
   9    4    7 ar
  10    5    6 ar
  11    5   10 ar
  12    6   35 1
  13    7    8 ar
  14    7   15 1
  15    8    9 ar
  16    8   36 1
  17    9   10 ar
  18    9   11 1
  19   10   14 1
  20   11   12 am
  21   11   16 2
  22   12   13 1
  23   12   17 1
  24   13   14 2
  25   13   37 1
  26   15   23 1
  27   15   38 1
  28   15   39 1
  29   17   18 1
  30   17   22 1
  31   17   40 1
  32   18   19 1
  33   18   24 1
  34   18   41 1
  35   19   20 1
  36   19   42 1
  37   19   43 1
  38   20   21 1
  39   20   44 1
  40   20   45 1
  41   21   22 1
  42   21   46 1
  43   21   47 1
  44   22   48 1
  45   22   49 1
  46   23   25 2
  47   23   29 1
  48   24   50 1
  49   25   26 1
  50   25   51 1
  51   26   27 am
  52   26   30 1
  53   27   28 1
  54   27   31 2
  55   28   29 2
  56   28   52 1
  57   29   53 1
  58   30   54 1
  59   30   55 1
  60   30   56 1

#	End of record

