#	Name: ASD01918097
#	Creating user name:	WinNT
#	Creation time:	15. 06. 2019 20:10

#	Modifying user name:	WinNT
#	Modification time:	15. 06. 2019 20:10

#	Program:	/corina/corina34_cracker 3.40 0067  02.08.2006

@<TRIPOS>MOLECULE
ASD01918097
  46   48    0    0    0
SMALL
NO_CHARGES


@<TRIPOS>ATOM
   1 N1            -0.2738     1.3871     0.8423 N.am    
   2 C2            -0.3976     0.0188     1.1092 C.2     
   3 C3             2.0501    -0.2764     1.4685 C.3     
   4 C4             2.1416     1.0507     0.7068 C.3     
   5 C5             1.0295     1.9971     1.1726 C.3     
   6 C6            -1.5033    -0.7558     1.1327 C.2     
   7 C7            -1.1013    -2.0589     1.4531 C.2     
   8 N8             0.2001    -2.0624     1.6151 N.2     
   9 N9             0.6710    -0.7673     1.4034 N.pl3   
  10 C10           -2.0099    -3.2534     1.5890 C.3     
  11 O11           -3.3597    -2.8561     1.3397 O.3     
  12 C12           -1.2830     2.1045     0.3099 C.2     
  13 C13           -1.1405     3.5952     0.1408 C.3     
  14 O14           -2.3059     1.5503    -0.0330 O.2     
  15 C15           -4.3125    -3.8216     1.4226 C.ar    
  16 C16           -5.6436    -3.5058     1.1925 C.ar    
  17 C17           -6.6102    -4.4891     1.2774 C.ar    
  18 C18           -6.2519    -5.7871     1.5914 C.ar    
  19 C19           -4.9260    -6.1043     1.8216 C.ar    
  20 C20           -3.9549    -5.1259     1.7319 C.ar    
  21 C21           -2.4823     4.1900    -0.2911 C.3     
  22 C22           -0.7094     4.2202     1.4691 C.3     
  23 C23           -0.0850     3.8886    -0.9273 C.3     
  24 H24            2.7191    -1.0061     1.0123 H       
  25 H25            2.3331    -0.1201     2.5095 H       
  26 H26            3.1114     1.5107     0.8962 H       
  27 H27            2.0337     0.8631    -0.3615 H       
  28 H28            1.1256     2.9549     0.6612 H       
  29 H29            1.1020     2.1451     2.2501 H       
  30 H30           -2.5146    -0.4296     0.9397 H       
  31 H31           -1.7169    -4.0167     0.8682 H       
  32 H32           -1.9306    -3.6573     2.5983 H       
  33 H33           -5.9241    -2.4920     0.9476 H       
  34 H34           -7.6467    -4.2437     1.0988 H       
  35 H35           -7.0091    -6.5544     1.6574 H       
  36 H36           -4.6487    -7.1187     2.0675 H       
  37 H37           -2.9193    -5.3741     1.9117 H       
  38 H38           -3.2342     3.9809     0.4698 H       
  39 H39           -2.3792     5.2682    -0.4134 H       
  40 H40           -2.7894     3.7447    -1.2374 H       
  41 H41            0.3085     3.9088     1.7038 H       
  42 H42           -0.7476     5.3066     1.3888 H       
  43 H43           -1.3819     3.8905     2.2610 H       
  44 H44           -0.5053     3.6994    -1.9150 H       
  45 H45            0.2226     4.9320    -0.8571 H       
  46 H46            0.7796     3.2436    -0.7706 H       
@<TRIPOS>BOND
   1    1    2 1
   2    1    5 1
   3    1   12 am
   4    2    6 2
   5    2    9 1
   6    3    4 1
   7    3    9 1
   8    3   24 1
   9    3   25 1
  10    4    5 1
  11    4   26 1
  12    4   27 1
  13    5   28 1
  14    5   29 1
  15    6    7 1
  16    6   30 1
  17    7    8 2
  18    7   10 1
  19    8    9 1
  20   10   11 1
  21   10   31 1
  22   10   32 1
  23   11   15 1
  24   12   13 1
  25   12   14 2
  26   13   21 1
  27   13   22 1
  28   13   23 1
  29   15   16 ar
  30   15   20 ar
  31   16   17 ar
  32   16   33 1
  33   17   18 ar
  34   17   34 1
  35   18   19 ar
  36   18   35 1
  37   19   20 ar
  38   19   36 1
  39   20   37 1
  40   21   38 1
  41   21   39 1
  42   21   40 1
  43   22   41 1
  44   22   42 1
  45   22   43 1
  46   23   44 1
  47   23   45 1
  48   23   46 1

#	End of record

