#	Name: ASD01883525
#	Creating user name:	WinNT
#	Creation time:	15. 06. 2019 19:46

#	Modifying user name:	WinNT
#	Modification time:	15. 06. 2019 19:46

#	Program:	/corina/corina34_cracker 3.40 0067  02.08.2006

@<TRIPOS>MOLECULE
ASD01883525
  56   59    0    0    0
SMALL
NO_CHARGES


@<TRIPOS>ATOM
   1 N1             0.0020     1.3083    -0.0152 N.am    
   2 C2            -0.7509     1.3813     1.0980 C.2     
   3 C3            -1.9988     0.7165     1.1506 C.2     
   4 C4            -2.4239    -0.0108     0.0261 C.2     
   5 C5            -1.5921    -0.0496    -1.1083 C.2     
   6 C6            -0.4126     0.6089    -1.1035 C.2     
   7 O7            -0.3579     2.0192     2.0601 O.2     
   8 C8            -2.8125     0.7832     2.3272 C.1     
   9 N9            -3.4579     0.8361     3.2605 N.1     
  10 C10            1.2918     2.0018    -0.0563 C.3     
  11 C11            2.3913     1.0642     0.4467 C.3     
  12 C12            3.7383     1.7885     0.4038 C.3     
  13 C13            4.8168     0.8967     1.0221 C.3     
  14 C14            4.1044     2.0990    -1.0489 C.3     
  15 N15           -3.6309    -0.6732     0.0341 N.pl3   
  16 C16           -4.8917     0.0704     0.1608 C.3     
  17 C17           -5.8139    -0.3222    -0.9979 C.3     
  18 C18           -5.9788    -1.8424    -1.0206 C.3     
  19 C19           -4.6182    -2.5058    -1.2391 C.3     
  20 C20           -3.6824    -2.1362    -0.0900 C.3     
  21 O21           -6.5304    -2.2821     0.2249 O.3     
  22 C22           -7.7552    -1.6228     0.5604 C.3     
  23 C23           -8.6788    -1.6496    -0.6311 C.ar    
  24 C24           -8.1875    -1.9398    -1.8941 C.ar    
  25 O25           -6.8680    -2.2133    -2.0763 O.3     
  26 C26          -10.0245    -1.3827    -0.4595 C.ar    
  27 C27          -10.8790    -1.4014    -1.5457 C.ar    
  28 C28          -10.3904    -1.6862    -2.8076 C.ar    
  29 C29           -9.0474    -1.9549    -2.9842 C.ar    
  30 H30           -1.8984    -0.6028    -1.9839 H       
  31 H31            0.2174     0.5719    -1.9800 H       
  32 H32            1.5107     2.3016    -1.0811 H       
  33 H33            1.2493     2.8860     0.5797 H       
  34 H34            2.1724     0.7644     1.4715 H       
  35 H35            2.4338     0.1800    -0.1893 H       
  36 H36            3.6688     2.7187     0.9677 H       
  37 H37            4.8864    -0.0335     0.4582 H       
  38 H38            5.7765     1.4127     0.9916 H       
  39 H39            4.5560     0.6755     2.0571 H       
  40 H40            5.0640     2.6150    -1.0795 H       
  41 H41            4.1739     1.1688    -1.6129 H       
  42 H42            3.3360     2.7343    -1.4894 H       
  43 H43           -5.3692    -0.1787     1.1084 H       
  44 H44           -4.6903     1.1409     0.1209 H       
  45 H45           -6.7882     0.1474    -0.8626 H       
  46 H46           -5.3769     0.0105    -1.9395 H       
  47 H47           -4.7428    -3.5881    -1.2747 H       
  48 H48           -4.1905    -2.1575    -2.1793 H       
  49 H49           -2.6836    -2.5224    -0.2935 H       
  50 H50           -4.0590    -2.5629     0.8396 H       
  51 H51           -8.2271    -2.1363     1.3981 H       
  52 H52           -7.5479    -0.5891     0.8369 H       
  53 H53          -10.4087    -1.1598     0.5249 H       
  54 H54          -11.9299    -1.1935    -1.4087 H       
  55 H55          -11.0593    -1.6986    -3.6553 H       
  56 H56           -8.6661    -2.1776    -3.9698 H       
@<TRIPOS>BOND
   1    1    2 am
   2    1   10 1
   3    1    6 1
   4    2    3 1
   5    2    7 2
   6    3    4 2
   7    3    8 1
   8    4    5 1
   9    4   15 1
  10    5    6 2
  11    5   30 1
  12    6   31 1
  13    8    9 3
  14   10   11 1
  15   10   32 1
  16   10   33 1
  17   11   12 1
  18   11   34 1
  19   11   35 1
  20   12   13 1
  21   12   14 1
  22   12   36 1
  23   13   37 1
  24   13   38 1
  25   13   39 1
  26   14   40 1
  27   14   41 1
  28   14   42 1
  29   15   16 1
  30   15   20 1
  31   16   17 1
  32   16   43 1
  33   16   44 1
  34   17   18 1
  35   17   45 1
  36   17   46 1
  37   18   19 1
  38   18   21 1
  39   18   25 1
  40   19   20 1
  41   19   47 1
  42   19   48 1
  43   20   49 1
  44   20   50 1
  45   21   22 1
  46   22   23 1
  47   22   51 1
  48   22   52 1
  49   23   24 ar
  50   23   26 ar
  51   24   25 1
  52   24   29 ar
  53   26   27 ar
  54   26   53 1
  55   27   28 ar
  56   27   54 1
  57   28   29 ar
  58   28   55 1
  59   29   56 1

#	End of record

