#	Name: ASD01885925
#	Creating user name:	WinNT
#	Creation time:	15. 06. 2019 19:50

#	Modifying user name:	WinNT
#	Modification time:	15. 06. 2019 19:50

#	Program:	/corina/corina34_cracker 3.40 0067  02.08.2006

@<TRIPOS>MOLECULE
ASD01885925
  52   55    0    0    0
SMALL
NO_CHARGES


@<TRIPOS>ATOM
   1 C1            -0.0170     1.4037     0.0098 C.ar    
   2 C2            -1.2665     2.0740     0.0193 C.ar    
   3 C3            -1.2874     3.4920     0.0272 C.ar    
   4 C4            -0.0699     4.1597     0.0250 C.ar    
   5 C5             1.1199     3.4234     0.0154 C.ar    
   6 N6             1.1178     2.1038     0.0027 N.ar    
   7 C7             0.0021    -0.0041     0.0020 C.ar    
   8 C8            -1.1700    -0.6951     0.0090 C.ar    
   9 C9            -2.3952    -0.0320     0.0237 C.ar    
  10 C10           -2.4530     1.3298     0.0204 C.ar    
  11 C11           -2.5666     4.2367     0.0368 C.ar    
  12 C12           -2.7762     5.2540     0.9682 C.ar    
  13 C13           -3.9688     5.9463     0.9752 C.ar    
  14 C14           -3.5636     3.9264    -0.8897 C.ar    
  15 C15            2.4157     4.1442     0.0060 C.2     
  16 N16            3.5718     3.4518    -0.0152 N.am    
  17 O17            2.4352     5.3590     0.0175 O.2     
  18 C18           -1.1424    -2.2019     0.0127 C.3     
  19 C19           -4.9612     5.6327     0.0570 C.ar    
  20 C20           -4.7546     4.6229    -0.8774 C.ar    
  21 O21           -6.1351     6.3168     0.0674 O.3     
  22 C22           -1.1525    -2.7157    -1.4284 C.3     
  23 C23           -6.2784     7.3445     1.0499 C.3     
  24 F24           -5.7226     4.3206    -1.7700 F       
  25 C25           -1.1249    -4.2225    -1.4247 C.ar    
  26 C26           -2.3020    -4.9538    -1.4068 C.ar    
  27 N27           -2.2386    -6.2756    -1.4040 N.ar    
  28 C28           -1.0758    -6.8959    -1.4180 C.ar    
  29 N29            0.0635    -6.2335    -1.4352 N.ar    
  30 C30            0.0783    -4.9102    -1.4448 C.ar    
  31 C31           -1.0481    -8.4026    -1.4137 C.3     
  32 H32           -0.0416     5.2393     0.0305 H       
  33 H33            0.9434    -0.5334    -0.0098 H       
  34 H34           -3.3109    -0.6043     0.0376 H       
  35 H35           -3.4089     1.8324     0.0280 H       
  36 H36           -2.0051     5.4990     1.6836 H       
  37 H37           -4.1310     6.7336     1.6965 H       
  38 H38           -3.4028     3.1427    -1.6152 H       
  39 H39            3.5562     2.4820    -0.0243 H       
  40 H40            4.4195     3.9233    -0.0213 H       
  41 H41           -0.2390    -2.5475     0.5153 H       
  42 H42           -2.0185    -2.5801     0.5394 H       
  43 H43           -2.0559    -2.3701    -1.9310 H       
  44 H44           -0.2764    -2.3375    -1.9551 H       
  45 H45           -6.1831     6.9112     2.0455 H       
  46 H46           -5.5026     8.0963     0.9051 H       
  47 H47           -7.2588     7.8100     0.9485 H       
  48 H48           -3.2582    -4.4518    -1.3949 H       
  49 H49            1.0153    -4.3735    -1.4589 H       
  50 H50           -1.0555    -8.7690    -2.4403 H       
  51 H51           -0.1447    -8.7480    -0.9111 H       
  52 H52           -1.9242    -8.7806    -0.8867 H       
@<TRIPOS>BOND
   1    1    7 ar
   2    1    6 ar
   3    1    2 ar
   4    2    3 ar
   5    2   10 ar
   6    3   11 1
   7    3    4 ar
   8    4    5 ar
   9    4   32 1
  10    5   15 1
  11    5    6 ar
  12    7    8 ar
  13    7   33 1
  14    8    9 ar
  15    8   18 1
  16    9   10 ar
  17    9   34 1
  18   10   35 1
  19   11   12 ar
  20   11   14 ar
  21   12   13 ar
  22   12   36 1
  23   13   19 ar
  24   13   37 1
  25   14   20 ar
  26   14   38 1
  27   15   16 am
  28   15   17 2
  29   16   39 1
  30   16   40 1
  31   18   22 1
  32   18   41 1
  33   18   42 1
  34   19   20 ar
  35   19   21 1
  36   20   24 1
  37   21   23 1
  38   22   25 1
  39   22   43 1
  40   22   44 1
  41   23   45 1
  42   23   46 1
  43   23   47 1
  44   25   26 ar
  45   25   30 ar
  46   26   27 ar
  47   26   48 1
  48   27   28 ar
  49   28   29 ar
  50   28   31 1
  51   29   30 ar
  52   30   49 1
  53   31   50 1
  54   31   51 1
  55   31   52 1

#	End of record

