#	Name: ASD00069143
#	Creating user name:	WinNT
#	Creation time:	15. 06. 2019 18:29

#	Modifying user name:	WinNT
#	Modification time:	15. 06. 2019 18:29

#	Program:	/corina/corina34_cracker 3.40 0067  02.08.2006

@<TRIPOS>MOLECULE
ASD00069143
  56   60    0    0    0
SMALL
NO_CHARGES


@<TRIPOS>ATOM
   1 C1            -0.0635     1.2949    -0.5898 C.2     
   2 N2            -0.0206     0.0044    -0.3437 N.2     
   3 C3             1.2318    -0.4329    -0.5256 C.2     
   4 C4             2.0015     0.6328    -0.9014 C.2     
   5 N5             1.1901     1.7131    -0.9412 N.pl3   
   6 C6            -1.2635     2.1474    -0.5070 C.2     
   7 O7            -1.1845     3.3347    -0.7587 O.2     
   8 N8            -2.4480     1.6111    -0.1525 N.am    
   9 C9             1.3018    -4.1295     0.1919 C.ar    
  10 C10            0.8198    -2.8380     0.0395 C.ar    
  11 C11            1.7020    -1.8288    -0.3495 C.ar    
  12 C12            3.0415    -2.1684    -0.5694 C.ar    
  13 C13            3.4398    -3.4767    -0.3957 C.ar    
  14 N14            2.5779    -4.4056    -0.0270 N.ar    
  15 N15            0.4314    -5.1503     0.5868 N.pl3   
  16 N16           -0.9359    -5.0104     0.8581 N.2     
  17 C17           -1.4088    -6.1825     1.1953 C.2     
  18 C18           -0.3616    -7.1099     1.1512 C.2     
  19 C19            0.7595    -6.4557     0.7700 C.2     
  20 C20           -3.5619     2.4380     0.0388 C.ar    
  21 C21           -4.8463     1.8957     0.0210 C.ar    
  22 C22           -5.9464     2.7213     0.2117 C.ar    
  23 C23           -5.7650     4.0779     0.4186 C.ar    
  24 C24           -4.4906     4.6141     0.4355 C.ar    
  25 C25           -3.3901     3.7979     0.2521 C.ar    
  26 F26           -7.1930     2.2008     0.1949 F       
  27 N27           -5.0263     0.5226    -0.1891 N.3     
  28 C28           -5.7500     0.2723    -1.4421 C.3     
  29 C29           -5.8007    -1.2333    -1.7115 C.3     
  30 C30           -6.5050    -1.9321    -0.5453 C.3     
  31 C31           -5.7594    -1.6159     0.7542 C.3     
  32 C32           -5.7099    -0.0992     0.9522 C.3     
  33 N33           -6.5429    -1.4845    -2.9541 N.3     
  34 H34            3.0582     0.6149    -1.1239 H       
  35 H35            1.4492     2.6178    -1.1762 H       
  36 H36           -2.5290     0.6523    -0.0297 H       
  37 H37           -0.2221    -2.6168     0.2187 H       
  38 H38            3.7541    -1.4153    -0.8716 H       
  39 H39            4.4722    -3.7454    -0.5638 H       
  40 H40           -2.4329    -6.3978     1.4624 H       
  41 H41           -0.4361    -8.1632     1.3779 H       
  42 H42            1.7385    -6.8919     0.6374 H       
  43 H43           -6.6212     4.7192     0.5668 H       
  44 H44           -4.3544     5.6732     0.5969 H       
  45 H45           -2.3961     4.2200     0.2704 H       
  46 H46           -6.7651     0.6608    -1.3591 H       
  47 H47           -5.2365     0.7712    -2.2640 H       
  48 H48           -4.7862    -1.6200    -1.8084 H       
  49 H49           -7.5319    -1.5739    -0.4725 H       
  50 H50           -6.5050    -3.0092    -0.7124 H       
  51 H51           -6.2806    -2.0757     1.5939 H       
  52 H52           -4.7443    -2.0087     0.6961 H       
  53 H53           -5.1672     0.1298     1.8693 H       
  54 H54           -6.7251     0.2910     1.0240 H       
  55 H55           -6.5902    -2.4724    -3.1537 H       
  56 H56           -7.4662    -1.0796    -2.9120 H       
@<TRIPOS>BOND
   1    1    2 2
   2    1    5 1
   3    1    6 1
   4    2    3 1
   5    3    4 2
   6    3   11 1
   7    4    5 1
   8    4   34 1
   9    5   35 1
  10    6    7 2
  11    6    8 am
  12    8   20 1
  13    8   36 1
  14    9   10 ar
  15    9   14 ar
  16    9   15 1
  17   10   11 ar
  18   10   37 1
  19   11   12 ar
  20   12   13 ar
  21   12   38 1
  22   13   14 ar
  23   13   39 1
  24   15   16 1
  25   15   19 1
  26   16   17 2
  27   17   18 1
  28   17   40 1
  29   18   19 2
  30   18   41 1
  31   19   42 1
  32   20   21 ar
  33   20   25 ar
  34   21   22 ar
  35   21   27 1
  36   22   23 ar
  37   22   26 1
  38   23   24 ar
  39   23   43 1
  40   24   25 ar
  41   24   44 1
  42   25   45 1
  43   27   28 1
  44   27   32 1
  45   28   29 1
  46   28   46 1
  47   28   47 1
  48   29   30 1
  49   29   33 1
  50   29   48 1
  51   30   31 1
  52   30   49 1
  53   30   50 1
  54   31   32 1
  55   31   51 1
  56   31   52 1
  57   32   53 1
  58   32   54 1
  59   33   55 1
  60   33   56 1

#	End of record

