#	Name: ASD01816400
#	Creating user name:	WinNT
#	Creation time:	15. 06. 2019 19:35

#	Modifying user name:	WinNT
#	Modification time:	15. 06. 2019 19:35

#	Program:	/corina/corina34_cracker 3.40 0067  02.08.2006

@<TRIPOS>MOLECULE
ASD01816400
  53   58    0    0    0
SMALL
NO_CHARGES


@<TRIPOS>ATOM
   1 C1             0.7707     0.3758    -0.2667 C.ar    
   2 C2             1.0013    -0.9891    -0.2070 C.ar    
   3 C3             2.2858    -1.4813    -0.1032 C.ar    
   4 C4             3.3653    -0.6063    -0.0570 C.ar    
   5 C5             3.1282     0.7771    -0.1178 C.ar    
   6 C6             1.8284     1.2610    -0.2228 C.ar    
   7 N7             4.6566    -1.0936     0.0480 N.pl3   
   8 C8             5.7369    -0.2976     0.0968 C.2     
   9 C9             5.6289     1.0699     0.0450 C.2     
  10 C10            4.2879     1.6878    -0.0673 C.2     
  11 C11            6.5633     2.1910     0.0732 C.2     
  12 N12            5.8116     3.3095    -0.0150 N.am    
  13 N13            4.4568     2.9783    -0.0975 N.2     
  14 O14            7.7787     2.1298     0.1596 O.2     
  15 C15            4.8536    -2.5440     0.1092 C.3     
  16 C16            5.0189    -3.0878    -1.2865 C.ar    
  17 C17            6.2791    -3.1727    -1.8492 C.ar    
  18 C18            6.4337    -3.6702    -3.1284 C.ar    
  19 C19            5.3222    -4.0858    -3.8491 C.ar    
  20 C20            4.0582    -3.9998    -3.2812 C.ar    
  21 C21            3.9105    -3.5062    -1.9997 C.ar    
  22 N22            5.4758    -4.5908    -5.1478 N.pl3   
  23 C23            4.4823    -5.0277    -5.9545 C.2     
  24 C24            5.0440    -5.4319    -7.1173 C.2     
  25 C25            6.4260    -5.2362    -7.0192 C.2     
  26 N26            6.6850    -4.7267    -5.8419 N.2     
  27 C27            6.3160     4.6103    -0.0216 C.ar    
  28 N28            6.5682     5.2218     1.1250 N.ar    
  29 C29            7.0458     6.4508     1.1633 C.ar    
  30 C30            7.3014     7.1479    -0.0011 C.ar    
  31 C31            7.0505     6.5421    -1.2249 C.ar    
  32 C32            6.5546     5.2504    -1.2327 C.ar    
  33 C33            6.2670     4.5506    -2.5360 C.3     
  34 H34           -0.2395     0.7479    -0.3523 H       
  35 H35            0.1672    -1.6744    -0.2416 H       
  36 H36            2.4530    -2.5473    -0.0574 H       
  37 H37            1.6477     2.3247    -0.2694 H       
  38 H38            6.7164    -0.7449     0.1794 H       
  39 H39            5.7469    -2.7650     0.6934 H       
  40 H40            3.9874    -3.0088     0.5801 H       
  41 H41            7.1434    -2.8492    -1.2881 H       
  42 H42            7.4182    -3.7356    -3.5677 H       
  43 H43            3.1917    -4.3220    -3.8395 H       
  44 H44            2.9275    -3.4391    -1.5574 H       
  45 H45            3.4298    -5.0504    -5.7137 H       
  46 H46            4.5183    -5.8346    -7.9705 H       
  47 H47            7.1532    -5.4623    -7.7850 H       
  48 H48            7.2390     6.9181     2.1177 H       
  49 H49            7.6921     8.1539     0.0398 H       
  50 H50            7.2415     7.0659    -2.1499 H       
  51 H51            7.1245     3.9392    -2.8171 H       
  52 H52            5.3893     3.9145    -2.4209 H       
  53 H53            6.0791     5.2919    -3.3127 H       
@<TRIPOS>BOND
   1    1    2 ar
   2    1    6 ar
   3    1   34 1
   4    2    3 ar
   5    2   35 1
   6    3    4 ar
   7    3   36 1
   8    4    5 ar
   9    4    7 1
  10    5    6 ar
  11    5   10 1
  12    6   37 1
  13    7    8 1
  14    7   15 1
  15    8    9 2
  16    8   38 1
  17    9   10 1
  18    9   11 1
  19   10   13 2
  20   11   12 am
  21   11   14 2
  22   12   13 1
  23   12   27 1
  24   15   16 1
  25   15   39 1
  26   15   40 1
  27   16   17 ar
  28   16   21 ar
  29   17   18 ar
  30   17   41 1
  31   18   19 ar
  32   18   42 1
  33   19   20 ar
  34   19   22 1
  35   20   21 ar
  36   20   43 1
  37   21   44 1
  38   22   23 1
  39   22   26 1
  40   23   24 2
  41   23   45 1
  42   24   25 1
  43   24   46 1
  44   25   26 2
  45   25   47 1
  46   27   28 ar
  47   27   32 ar
  48   28   29 ar
  49   29   30 ar
  50   29   48 1
  51   30   31 ar
  52   30   49 1
  53   31   32 ar
  54   31   50 1
  55   32   33 1
  56   33   51 1
  57   33   52 1
  58   33   53 1

#	End of record

