#	Name: ASD01910590
#	Creating user name:	WinNT
#	Creation time:	15. 06. 2019 19:56

#	Modifying user name:	WinNT
#	Modification time:	15. 06. 2019 19:56

#	Program:	/corina/corina34_cracker 3.40 0067  02.08.2006

@<TRIPOS>MOLECULE
ASD01910590
  40   43    0    0    0
SMALL
NO_CHARGES


@<TRIPOS>ATOM
   1 C1             0.8017     1.9531    -1.0482 C.2     
   2 C2             0.8564     0.5213    -0.7004 C.2     
   3 N3             1.8673    -0.3058    -0.9120 N.2     
   4 C4             1.4656    -1.4936    -0.4342 C.2     
   5 N5             0.2619    -1.3435     0.0345 N.2     
   6 O6            -0.1077    -0.1964    -0.1018 O.3     
   7 C7             2.2651    -2.7710    -0.4397 C.3     
   8 C8             2.4610    -3.2572     0.9981 C.3     
   9 C9             3.3007    -4.5367     0.9958 C.3     
  10 C10            2.5613    -5.6266     0.2133 C.3     
  11 N11            2.2408    -5.1128    -1.1253 N.am    
  12 C12            1.5140    -3.8409    -1.2385 C.3     
  13 C13            2.6065    -5.7952    -2.2285 C.2     
  14 C14            3.4092    -7.0288    -2.1017 C.ar    
  15 O15            2.2759    -5.3954    -3.3280 O.2     
  16 C16            3.0082    -8.0386    -1.2243 C.ar    
  17 C17            3.7606    -9.1878    -1.1101 C.ar    
  18 C18            4.9136    -9.3424    -1.8646 C.ar    
  19 C19            5.3165    -8.3428    -2.7370 C.ar    
  20 C20            4.5684    -7.1920    -2.8631 C.ar    
  21 F21            5.6474   -10.4709    -1.7489 F       
  22 N22            1.8053     2.5952    -1.6379 N.2     
  23 C23            1.6082     3.8445    -1.8789 C.2     
  24 S24            0.0555     4.3172    -1.3470 S.3     
  25 C25           -0.2750     2.7309    -0.8021 C.2     
  26 H26            3.2373    -2.5897    -0.8981 H       
  27 H27            2.9736    -2.4875     1.5751 H       
  28 H28            1.4894    -3.4614     1.4479 H       
  29 H29            4.2632    -4.3394     0.5237 H       
  30 H30            3.4595    -4.8695     2.0215 H       
  31 H31            3.1971    -6.5074     0.1240 H       
  32 H32            1.6405    -5.8893     0.7340 H       
  33 H33            0.5078    -3.9580    -0.8362 H       
  34 H34            1.4588    -3.5435    -2.2857 H       
  35 H35            2.1105    -7.9190    -0.6359 H       
  36 H36            3.4516    -9.9692    -0.4316 H       
  37 H37            6.2156    -8.4681    -3.3220 H       
  38 H38            4.8829    -6.4141    -3.5431 H       
  39 H39            2.3242     4.5013    -2.3505 H       
  40 H40           -1.1919     2.4053    -0.3332 H       
@<TRIPOS>BOND
   1    1    2 1
   2    1   22 1
   3    1   25 2
   4    2    3 2
   5    2    6 1
   6    3    4 1
   7    4    5 2
   8    4    7 1
   9    5    6 1
  10    7    8 1
  11    7   12 1
  12    7   26 1
  13    8    9 1
  14    8   27 1
  15    8   28 1
  16    9   10 1
  17    9   29 1
  18    9   30 1
  19   10   11 1
  20   10   31 1
  21   10   32 1
  22   11   12 1
  23   11   13 am
  24   12   33 1
  25   12   34 1
  26   13   14 1
  27   13   15 2
  28   14   16 ar
  29   14   20 ar
  30   16   17 ar
  31   16   35 1
  32   17   18 ar
  33   17   36 1
  34   18   19 ar
  35   18   21 1
  36   19   20 ar
  37   19   37 1
  38   20   38 1
  39   22   23 2
  40   23   24 1
  41   23   39 1
  42   24   25 1
  43   25   40 1

#	End of record

