#	Name: ASD09800001
#	Creating user name:	WinNT
#	Creation time:	15. 06. 2019 21:24

#	Modifying user name:	WinNT
#	Modification time:	15. 06. 2019 21:24

#	Program:	/corina/corina34_cracker 3.40 0067  02.08.2006

@<TRIPOS>MOLECULE
ASD09800001
  41   45    0    0    0
SMALL
NO_CHARGES


@<TRIPOS>ATOM
   1 N1            -1.0687    -3.8499    -0.1186 N.pl3   
   2 N2            -0.5123    -2.5840     0.1048 N.2     
   3 C3             0.7945    -2.7028     0.0890 C.2     
   4 C4             1.1059    -4.0519    -0.1455 C.2     
   5 C5            -0.0572    -4.7308    -0.2686 C.2     
   6 C6            -0.1988    -6.2087    -0.5274 C.3     
   7 C7            -1.3749    -6.9318     0.1320 C.3     
   8 C8            -1.3874    -6.6668    -1.3748 C.3     
   9 N9             1.7174    -1.6654     0.2738 N.pl3   
  10 C10            3.0699    -1.9510     0.3756 C.ar    
  11 C11            4.0087    -0.9193     0.4432 C.ar    
  12 C12            5.3460    -1.2509     0.5444 C.ar    
  13 N13            5.6966    -2.5281     0.5742 N.ar    
  14 C14            4.7842    -3.4867     0.5084 C.ar    
  15 N15            3.4920    -3.2110     0.4158 N.ar    
  16 N16            5.1914    -4.8100     0.5421 N.pl3   
  17 C17            6.5563    -5.1230     0.5321 C.ar    
  18 C18            7.0142    -6.2475     1.2157 C.ar    
  19 C19            8.3546    -6.5668     1.2134 C.ar    
  20 C20            9.2561    -5.7653     0.5269 C.ar    
  21 C21            8.8028    -4.6294    -0.1650 C.ar    
  22 C22            7.4411    -4.3178    -0.1605 C.ar    
  23 N23           10.6244    -5.8081     0.3329 N.pl3   
  24 C24           10.9565    -4.7404    -0.4411 C.2     
  25 N25            9.8923    -4.0507    -0.7327 N.2     
  26 H26           -2.0154    -4.0578    -0.1549 H       
  27 H27            2.0982    -4.4725    -0.2155 H       
  28 H28            0.7361    -6.7593    -0.6317 H       
  29 H29           -1.2139    -7.9584     0.4611 H       
  30 H30           -2.0462    -6.3387     0.7529 H       
  31 H31           -2.0670    -5.8993    -1.7452 H       
  32 H32           -1.2346    -7.5190    -2.0370 H       
  33 H33            1.4099    -0.7472     0.3306 H       
  34 H34            3.6965     0.1142     0.4165 H       
  35 H35            6.0975    -0.4772     0.5983 H       
  36 H36            4.5312    -5.5200     0.5727 H       
  37 H37            6.3145    -6.8724     1.7508 H       
  38 H38            8.7034    -7.4395     1.7454 H       
  39 H39            7.0821    -3.4473    -0.6895 H       
  40 H40           11.2343    -6.4757     0.6839 H       
  41 H41           11.9579    -4.4997    -0.7662 H       
@<TRIPOS>BOND
   1    1    2 1
   2    1    5 1
   3    1   26 1
   4    2    3 2
   5    3    4 1
   6    3    9 1
   7    4    5 2
   8    4   27 1
   9    5    6 1
  10    6    7 1
  11    6    8 1
  12    6   28 1
  13    7    8 1
  14    7   29 1
  15    7   30 1
  16    8   31 1
  17    8   32 1
  18    9   10 1
  19    9   33 1
  20   10   11 ar
  21   10   15 ar
  22   11   12 ar
  23   11   34 1
  24   12   13 ar
  25   12   35 1
  26   13   14 ar
  27   14   15 ar
  28   14   16 1
  29   16   17 1
  30   16   36 1
  31   17   18 ar
  32   17   22 ar
  33   18   19 ar
  34   18   37 1
  35   19   20 ar
  36   19   38 1
  37   20   21 ar
  38   20   23 1
  39   21   22 ar
  40   21   25 1
  41   22   39 1
  42   23   24 1
  43   23   40 1
  44   24   25 2
  45   24   41 1

#	End of record

