#	Name: ASD01813575
#	Creating user name:	WinNT
#	Creation time:	15. 06. 2019 19:30

#	Modifying user name:	WinNT
#	Modification time:	15. 06. 2019 19:30

#	Program:	/corina/corina34_cracker 3.40 0067  02.08.2006

@<TRIPOS>MOLECULE
ASD01813575
  43   46    0    0    0
SMALL
NO_CHARGES


@<TRIPOS>ATOM
   1 C1            -0.0168     1.3825    -0.0473 C.ar    
   2 C2             0.0020    -0.0038    -0.0543 C.ar    
   3 C3             1.1975    -0.6931    -0.0501 C.ar    
   4 C4             2.4040     0.0044    -0.0392 C.ar    
   5 C5             2.3834     1.4096    -0.0326 C.ar    
   6 C6             1.1657     2.0946    -0.0365 C.ar    
   7 N7             3.6050    -0.6734    -0.0339 N.pl3   
   8 C8             4.7898    -0.0496    -0.0225 C.2     
   9 C9             4.8962     1.3266    -0.0147 C.2     
  10 C10            3.6660     2.1351    -0.0211 C.2     
  11 O11            3.7066     3.3531    -0.0151 O.2     
  12 C12            6.2155     1.9737    -0.0012 C.2     
  13 O13            6.3065     3.3187     0.0063 O.3     
  14 O14            7.2249     1.2962     0.0031 O.2     
  15 C15            3.5837    -2.1382    -0.0406 C.3     
  16 C16            3.4403    -2.6321    -1.4571 C.ar    
  17 N17            2.2386    -2.7348    -1.9921 N.ar    
  18 C18            2.0573    -3.1611    -3.2279 C.ar    
  19 C19            3.1296    -3.5203    -4.0171 C.ar    
  20 C20            4.4211    -3.4270    -3.4901 C.ar    
  21 C21            4.5675    -2.9653    -2.1791 C.ar    
  22 F22            1.1984    -2.0441    -0.0562 F       
  23 F23            1.1457     3.4455    -0.0306 F       
  24 C24            5.6045    -3.8025    -4.3024 C.2     
  25 C25            5.5884    -4.2592    -5.5887 C.2     
  26 N26            6.8646    -4.4837    -5.9576 N.pl3   
  27 N27            7.6960    -4.1603    -4.8785 N.2     
  28 C28            6.9503    -3.7469    -3.8887 C.2     
  29 C29            7.3063    -4.9807    -7.2630 C.3     
  30 H30           -0.9606     1.9075    -0.0548 H       
  31 H31           -0.9294    -0.5504    -0.0628 H       
  32 H32            5.6921    -0.6430    -0.0189 H       
  33 H33            7.1957     3.6986     0.0151 H       
  34 H34            4.5134    -2.5171     0.3839 H       
  35 H35            2.7418    -2.4920     0.5545 H       
  36 H36            1.0558    -3.2298    -3.6263 H       
  37 H37            2.9739    -3.8690    -5.0274 H       
  38 H38            5.5481    -2.8786    -1.7350 H       
  39 H39            4.7113    -4.4134    -6.1998 H       
  40 H40            7.3032    -3.4255    -2.9199 H       
  41 H41            7.4863    -4.1380    -7.9306 H       
  42 H42            8.2270    -5.5515    -7.1419 H       
  43 H43            6.5342    -5.6222    -7.6877 H       
@<TRIPOS>BOND
   1    1    2 ar
   2    1    6 ar
   3    1   30 1
   4    2    3 ar
   5    2   31 1
   6    3    4 ar
   7    3   22 1
   8    4    5 ar
   9    4    7 1
  10    5    6 ar
  11    5   10 1
  12    6   23 1
  13    7    8 1
  14    7   15 1
  15    8    9 2
  16    8   32 1
  17    9   10 1
  18    9   12 1
  19   10   11 2
  20   12   13 1
  21   12   14 2
  22   13   33 1
  23   15   16 1
  24   15   34 1
  25   15   35 1
  26   16   17 ar
  27   16   21 ar
  28   17   18 ar
  29   18   19 ar
  30   18   36 1
  31   19   20 ar
  32   19   37 1
  33   20   21 ar
  34   20   24 1
  35   21   38 1
  36   24   25 2
  37   24   28 1
  38   25   26 1
  39   25   39 1
  40   26   27 1
  41   26   29 1
  42   27   28 2
  43   28   40 1
  44   29   41 1
  45   29   42 1
  46   29   43 1

#	End of record

