#	Name: ASD07100002
#	Creating user name:	WinNT
#	Creation time:	15. 06. 2019 21:08

#	Modifying user name:	WinNT
#	Modification time:	15. 06. 2019 21:08

#	Program:	/corina/corina34_cracker 3.40 0067  02.08.2006

@<TRIPOS>MOLECULE
ASD07100002
  31   30    0    0    0
SMALL
NO_CHARGES


@<TRIPOS>ATOM
   1 C1            -0.1253     1.4380     0.3560 C.3     
   2 C2            -0.1285    -0.0843     0.5089 C.3     
   3 C3             1.3075     1.9249     0.1300 C.3     
   4 O4            -1.4667    -0.5390     0.7199 O.3     
   5 C5             1.3135     3.4493    -0.0004 C.3     
   6 C6             2.1798     1.5111     1.3168 C.3     
   7 O7             1.8252     1.3423    -1.0677 O.3     
   8 P8            -1.8438    -2.0911     0.9221 P.3     
   9 O9            -3.4441    -2.2486     1.0018 O.3     
  10 O10           -1.3043    -2.9117    -0.2706 O.co2   
  11 O11           -1.2095    -2.6088     2.2323 O.co2   
  12 P12           -4.4518    -3.4992     0.8892 P.3     
  13 O13           -4.1240    -4.5371     2.0161 O.co2   
  14 O14           -5.9269    -2.9977     1.0541 O.co2   
  15 O15           -4.2851    -4.1797    -0.5120 O.co2   
  16 C16            3.6095     2.0100     1.0973 C.3     
  17 C17            0.4916     3.8544    -1.1969 C.2     
  18 O18           -0.0799     3.0054    -1.8596 O.co2   
  19 O19            0.3980     5.0311    -1.5021 O.co2   
  20 H20           -0.7432     1.7188    -0.4970 H       
  21 H21           -0.5259     1.8950     1.2609 H       
  22 H22            0.2720    -0.5412    -0.3960 H       
  23 H23            0.4894    -0.3651     1.3618 H       
  24 H24            0.8878     3.8927     0.8997 H       
  25 H25            2.3380     3.7990    -0.1282 H       
  26 H26            1.7792     1.9475     2.2318 H       
  27 H27            2.1835     0.4246     1.4038 H       
  28 H28            1.3203     1.5627    -1.8625 H       
  29 H29            4.2565     1.6145     1.8803 H       
  30 H30            3.9672     1.6714     0.1250 H       
  31 H31            3.6233     3.0994     1.1304 H       
@<TRIPOS>BOND
   1    1    2 1
   2    1    3 1
   3    1   20 1
   4    1   21 1
   5    2    4 1
   6    2   22 1
   7    2   23 1
   8    3    5 1
   9    3    6 1
  10    3    7 1
  11    4    8 1
  12    5   17 1
  13    5   24 1
  14    5   25 1
  15    6   16 1
  16    6   26 1
  17    6   27 1
  18    7   28 1
  19    8    9 1
  20    8   10 ar
  21    8   11 ar
  22    9   12 1
  23   12   13 ar
  24   12   14 ar
  25   12   15 ar
  26   16   29 1
  27   16   30 1
  28   16   31 1
  29   17   18 ar
  30   17   19 ar

#	End of record

