#	Name: ASD08170357
#	Creating user name:	WinNT
#	Creation time:	15. 06. 2019 21:17

#	Modifying user name:	WinNT
#	Modification time:	15. 06. 2019 21:17

#	Program:	/corina/corina34_cracker 3.40 0067  02.08.2006

@<TRIPOS>MOLECULE
ASD08170357
  53   56    0    0    0
SMALL
NO_CHARGES


@<TRIPOS>ATOM
   1 N1            -0.0156     1.2980     0.0092 N.2     
   2 C2             0.0021    -0.0041     0.0020 C.2     
   3 S3             1.6907    -0.5172    -0.0169 S.3     
   4 C4             2.1708     1.1811    -0.0123 C.2     
   5 N5             1.0934     1.8981     0.0018 N.2     
   6 C6             7.9370     3.2695     4.7949 C.2     
   7 S7             7.6714     4.6831     5.8176 S.3     
   8 C8             8.3510     3.7848     7.1764 C.2     
   9 N9             8.6807     2.6019     6.7432 N.2     
  10 N10            8.4624     2.3418     5.5287 N.2     
  11 C11            9.2091     3.9605    10.8043 C.2     
  12 N12            9.7570     3.1514    11.7762 N.am    
  13 C13            8.8275     5.2247    11.1259 C.2     
  14 C14            9.0164     5.6804    12.5077 C.2     
  15 N15            9.5596     4.8315    13.4046 N.am    
  16 C16            9.9202     3.5899    13.0354 C.2     
  17 C17           -3.5327    -1.2016     0.0301 C.2     
  18 C18           -4.7859    -0.6758     0.0449 C.2     
  19 C19           -5.9287    -1.5960     0.0513 C.2     
  20 N20           -5.6945    -2.9247     0.0424 N.am    
  21 C21           -4.4347    -3.3940     0.0279 C.2     
  22 N22           -3.3735    -2.5705     0.0160 N.am    
  23 O23           10.4076     2.8445    13.8631 O.2     
  24 O24           -7.0678    -1.1683     0.0649 O.2     
  25 O25            8.6891     6.8047    12.8389 O.2     
  26 O26           -4.2510    -4.5959     0.0202 O.2     
  27 N27            8.5065     4.2550     8.4738 N.am    
  28 C28            9.0431     3.4586     9.4195 C.2     
  29 O29            9.3907     2.3292     9.1369 O.2     
  30 C30            3.5843     1.7036    -0.0230 C.3     
  31 C31            4.0764     1.8727     1.4158 C.3     
  32 S32            5.7778     2.5017     1.4029 S.3     
  33 C33            6.1774     2.6336     3.1674 C.3     
  34 C34            7.6050     3.1598     3.3291 C.3     
  35 N35           -1.1079    -0.8387     0.0085 N.am    
  36 C36           -2.3479    -0.3108     0.0232 C.2     
  37 O37           -2.4946     0.8954     0.0306 O.2     
  38 H38           10.0294     2.2491    11.5469 H       
  39 H39            8.3959     5.8781    10.3821 H       
  40 H40            9.6910     5.1187    14.3217 H       
  41 H41           -4.9369     0.3936     0.0520 H       
  42 H42           -6.4399    -3.5453     0.0469 H       
  43 H43           -2.4791    -2.9459     0.0054 H       
  44 H44            8.2289     5.1566     8.6995 H       
  45 H45            4.2287     0.9976    -0.5468 H       
  46 H46            3.6116     2.6671    -0.5320 H       
  47 H47            3.4320     2.5787     1.9396 H       
  48 H48            4.0490     0.9092     1.9247 H       
  49 H49            5.4805     3.3206     3.6474 H       
  50 H50            6.0975     1.6511     3.6325 H       
  51 H51            7.6849     4.1424     2.8639 H       
  52 H52            8.3020     2.4728     2.8491 H       
  53 H53           -0.9908    -1.8016     0.0026 H       
@<TRIPOS>BOND
   1    1    2 2
   2    1    5 1
   3    2    3 1
   4    2   35 1
   5    3    4 1
   6    4    5 2
   7    4   30 1
   8    6    7 1
   9    6   34 1
  10    6   10 2
  11    7    8 1
  12    8    9 2
  13    8   27 1
  14    9   10 1
  15   11   12 1
  16   11   13 2
  17   11   28 1
  18   12   16 am
  19   12   38 1
  20   13   14 1
  21   13   39 1
  22   14   15 am
  23   14   25 2
  24   15   16 am
  25   15   40 1
  26   16   23 2
  27   17   18 2
  28   17   36 1
  29   17   22 1
  30   18   19 1
  31   18   41 1
  32   19   20 am
  33   19   24 2
  34   20   21 am
  35   20   42 1
  36   21   22 am
  37   21   26 2
  38   22   43 1
  39   27   28 am
  40   27   44 1
  41   28   29 2
  42   30   31 1
  43   30   45 1
  44   30   46 1
  45   31   32 1
  46   31   47 1
  47   31   48 1
  48   32   33 1
  49   33   34 1
  50   33   49 1
  51   33   50 1
  52   34   51 1
  53   34   52 1
  54   35   36 am
  55   35   53 1
  56   36   37 2

#	End of record

