#	Name: ASD01884212
#	Creating user name:	WinNT
#	Creation time:	15. 06. 2019 19:47

#	Modifying user name:	WinNT
#	Modification time:	15. 06. 2019 19:47

#	Program:	/corina/corina34_cracker 3.40 0067  02.08.2006

@<TRIPOS>MOLECULE
ASD01884212
  36   39    0    0    0
SMALL
NO_CHARGES


@<TRIPOS>ATOM
   1 C1            -0.0169     1.3920     0.0097 C.ar    
   2 C2             0.0021    -0.0041     0.0020 C.ar    
   3 C3            -1.1683    -0.7205     0.0088 C.ar    
   4 C4            -2.4132    -0.0698     0.0242 C.ar    
   5 C5            -2.4165     1.3273     0.0322 C.ar    
   6 C6            -1.2432     2.0548     0.0308 C.ar    
   7 C7             1.2502     2.1592     0.0017 C.ar    
   8 N8            -3.6704    -0.6444     0.0326 N.am    
   9 C9            -4.7412     0.1548     0.0472 C.2     
  10 S10           -4.1177     1.8129     0.0508 S.3     
  11 O11           -5.9092    -0.1874     0.0565 O.2     
  12 C12           -3.8257    -2.1011     0.0253 C.3     
  13 C13           -3.8661    -2.6170     1.4651 C.3     
  14 C14           -4.1418    -4.1073     1.6741 C.3     
  15 C15           -2.7381    -3.5481     1.9139 C.3     
  16 C16            2.2694     1.8523     0.9219 C.ar    
  17 C17            3.4579     2.5841     0.9024 C.ar    
  18 C18            3.6264     3.5999    -0.0149 C.ar    
  19 C19            2.6220     3.9011    -0.9204 C.ar    
  20 C20            1.4423     3.1849    -0.9202 C.ar    
  21 C21            2.0885     0.7966     1.8723 C.1     
  22 N22            1.9449    -0.0409     2.6263 N.1     
  23 H23            0.9477    -0.5256    -0.0098 H       
  24 H24           -1.1319    -1.7999     0.0020 H       
  25 H25           -1.2753     3.1343     0.0375 H       
  26 H26           -4.7540    -2.3649    -0.4814 H       
  27 H27           -2.9842    -2.5536    -0.4993 H       
  28 H28           -4.2691    -1.9224     2.2022 H       
  29 H29           -4.7259    -4.3933     2.5489 H       
  30 H30           -4.2945    -4.7203     0.7858 H       
  31 H31           -1.9671    -3.7931     1.1833 H       
  32 H32           -2.3985    -3.4661     2.9464 H       
  33 H33            4.2450     2.3550     1.6055 H       
  34 H34            4.5470     4.1645    -0.0273 H       
  35 H35            2.7649     4.6990    -1.6341 H       
  36 H36            0.6644     3.4258    -1.6296 H       
@<TRIPOS>BOND
   1    1    2 ar
   2    1    7 1
   3    1    6 ar
   4    2    3 ar
   5    2   23 1
   6    3    4 ar
   7    3   24 1
   8    4    5 ar
   9    4    8 1
  10    5    6 ar
  11    5   10 1
  12    6   25 1
  13    7   16 ar
  14    7   20 ar
  15    8    9 am
  16    8   12 1
  17    9   10 1
  18    9   11 2
  19   12   13 1
  20   12   26 1
  21   12   27 1
  22   13   14 1
  23   13   15 1
  24   13   28 1
  25   14   15 1
  26   14   29 1
  27   14   30 1
  28   15   31 1
  29   15   32 1
  30   16   17 ar
  31   16   21 1
  32   17   18 ar
  33   17   33 1
  34   18   19 ar
  35   18   34 1
  36   19   20 ar
  37   19   35 1
  38   20   36 1
  39   21   22 3

#	End of record

