#	Name: ASD01912740
#	Creating user name:	WinNT
#	Creation time:	15. 06. 2019 20:00

#	Modifying user name:	WinNT
#	Modification time:	15. 06. 2019 20:00

#	Program:	/corina/corina34_cracker 3.40 0067  02.08.2006

@<TRIPOS>MOLECULE
ASD01912740
  40   43    0    0    0
SMALL
NO_CHARGES


@<TRIPOS>ATOM
   1 C1            -0.0052     1.4119     0.0442 C.2     
   2 N2             0.0260     0.0417     0.0045 N.pl3   
   3 C3            -1.1720    -0.6570    -0.0203 C.2     
   4 C4            -2.3385    -0.0256    -0.0063 C.2     
   5 N5            -2.4242     1.3539     0.0335 N.am    
   6 C6            -1.2972     2.0997     0.0655 C.2     
   7 C7             1.3089     1.8404     0.0609 C.2     
   8 C8             2.0733     0.6751     0.0295 C.2     
   9 N9             1.2520    -0.3475    -0.0029 N.2     
  10 O10           -1.3553     3.3155     0.1007 O.2     
  11 C11           -3.6728     1.9754     0.0464 C.ar    
  12 C12            3.5785     0.6027     0.0322 C.3     
  13 O13            4.1189     1.9250     0.0723 O.3     
  14 C14            5.4732     2.0380     0.0799 C.ar    
  15 C15            6.0656     3.2919     0.1182 C.ar    
  16 C16            7.4424     3.4042     0.1258 C.ar    
  17 C17            8.2300     2.2682     0.0953 C.ar    
  18 C18            7.6421     1.0173     0.0566 C.ar    
  19 C19            6.2656     0.8996     0.0551 C.ar    
  20 C20           -4.3375     2.1805     1.2519 C.ar    
  21 N21           -5.5187     2.7694     1.2602 N.ar    
  22 C22           -5.4102     2.9663    -1.0738 C.ar    
  23 N23           -4.2272     2.3774    -1.0897 N.ar    
  24 C24           -6.0703     3.1641     0.1252 C.ar    
  25 C25           -3.7097     1.7304     2.5458 C.3     
  26 H26           -1.1547    -1.7363    -0.0520 H       
  27 H27           -3.2488    -0.6065    -0.0270 H       
  28 H28            1.6665     2.8590     0.0913 H       
  29 H29            3.9139     0.0464     0.9074 H       
  30 H30            3.9196     0.0981    -0.8718 H       
  31 H31            5.4508     4.1796     0.1417 H       
  32 H32            7.9041     4.3801     0.1553 H       
  33 H33            9.3063     2.3580     0.1013 H       
  34 H34            8.2594     0.1315     0.0321 H       
  35 H35            5.8068    -0.0777     0.0249 H       
  36 H36           -5.8620     3.2938    -1.9985 H       
  37 H37           -7.0371     3.6454     0.1349 H       
  38 H38           -3.0235     2.4982     2.9031 H       
  39 H39           -4.4891     1.5650     3.2896 H       
  40 H40           -3.1624     0.8023     2.3806 H       
@<TRIPOS>BOND
   1    1    2 1
   2    1    7 2
   3    1    6 1
   4    2    3 1
   5    2    9 1
   6    3    4 2
   7    3   26 1
   8    4    5 1
   9    4   27 1
  10    5    6 am
  11    5   11 1
  12    6   10 2
  13    7    8 1
  14    7   28 1
  15    8    9 2
  16    8   12 1
  17   11   20 ar
  18   11   23 ar
  19   12   13 1
  20   12   29 1
  21   12   30 1
  22   13   14 1
  23   14   15 ar
  24   14   19 ar
  25   15   16 ar
  26   15   31 1
  27   16   17 ar
  28   16   32 1
  29   17   18 ar
  30   17   33 1
  31   18   19 ar
  32   18   34 1
  33   19   35 1
  34   20   21 ar
  35   20   25 1
  36   21   24 ar
  37   22   23 ar
  38   22   24 ar
  39   22   36 1
  40   24   37 1
  41   25   38 1
  42   25   39 1
  43   25   40 1

#	End of record

