#	Name: ASD01882975
#	Creating user name:	WinNT
#	Creation time:	15. 06. 2019 19:45

#	Modifying user name:	WinNT
#	Modification time:	15. 06. 2019 19:45

#	Program:	/corina/corina34_cracker 3.40 0067  02.08.2006

@<TRIPOS>MOLECULE
ASD01882975
  41   42    0    0    0
SMALL
NO_CHARGES


@<TRIPOS>ATOM
   1 C1            -0.0159     1.3220     0.0093 C.2     
   2 N2             0.0021    -0.0041     0.0020 N.2     
   3 C3             1.1523    -0.6857    -0.0126 C.2     
   4 C4             2.3835     0.0173    -0.0206 C.2     
   5 C5             2.3523     1.3664    -0.0131 C.2     
   6 N6             1.1484     2.0132     0.0019 N.pl3   
   7 O7            -1.0993     2.1290     0.0184 O.3     
   8 C8             0.8540     3.4562     0.0125 C.3     
   9 C9            -0.6831     3.5211     0.0242 C.3     
  10 O10            1.1423    -1.9071    -0.0187 O.2     
  11 C11           -1.1944     4.2379    -1.2270 C.3     
  12 O12           -2.6209     4.3119    -1.1842 O.3     
  13 Si13          -3.2854     5.0594    -2.4726 Si      
  14 C14           -2.6471     6.8067    -2.5742 C.3     
  15 C15           -2.8290     4.1402    -4.0274 C.3     
  16 C16           -5.1390     5.0851    -2.2878 C.3     
  17 C17           -5.5138     5.8400    -1.0108 C.3     
  18 C18           -5.7623     5.7863    -3.4964 C.3     
  19 C19           -5.6632     3.6501    -2.2043 C.3     
  20 H20            3.3237    -0.5140    -0.0321 H       
  21 H21            3.2727     1.9314    -0.0185 H       
  22 H22            1.2651     3.9237     0.9072 H       
  23 H23            1.2480     3.9334    -0.8848 H       
  24 H24           -1.0396     4.0220     0.9243 H       
  25 H25           -0.7793     5.2451    -1.2639 H       
  26 H26           -0.8857     3.6850    -2.1142 H       
  27 H27           -1.5626     6.7916    -2.6823 H       
  28 H28           -3.0912     7.3062    -3.4352 H       
  29 H29           -2.9141     7.3445    -1.6644 H       
  30 H30           -3.2024     3.1178    -3.9680 H       
  31 H31           -3.2731     4.6397    -4.8884 H       
  32 H32           -1.7445     4.1251    -4.1355 H       
  33 H33           -5.1404     6.8623    -1.0703 H       
  34 H34           -6.5983     5.8550    -0.9027 H       
  35 H35           -5.0697     5.3404    -0.1498 H       
  36 H36           -5.4953     5.2485    -4.4061 H       
  37 H37           -6.8469     5.8013    -3.3882 H       
  38 H38           -5.3889     6.8086    -3.5558 H       
  39 H39           -5.2191     3.1505    -1.3433 H       
  40 H40           -6.7477     3.6651    -2.0962 H       
  41 H41           -5.3961     3.1123    -3.1141 H       
@<TRIPOS>BOND
   1    1    2 2
   2    1    6 1
   3    1    7 1
   4    2    3 1
   5    3    4 1
   6    3   10 2
   7    4    5 2
   8    4   20 1
   9    5    6 1
  10    5   21 1
  11    6    8 1
  12    7    9 1
  13    8    9 1
  14    8   22 1
  15    8   23 1
  16    9   11 1
  17    9   24 1
  18   11   12 1
  19   11   25 1
  20   11   26 1
  21   12   13 1
  22   13   14 1
  23   13   15 1
  24   13   16 1
  25   14   27 1
  26   14   28 1
  27   14   29 1
  28   15   30 1
  29   15   31 1
  30   15   32 1
  31   16   17 1
  32   16   19 1
  33   16   18 1
  34   17   33 1
  35   17   34 1
  36   17   35 1
  37   18   36 1
  38   18   37 1
  39   18   38 1
  40   19   39 1
  41   19   40 1
  42   19   41 1

#	End of record

