#	Name: ASD01917768
#	Creating user name:	WinNT
#	Creation time:	15. 06. 2019 20:10

#	Modifying user name:	WinNT
#	Modification time:	15. 06. 2019 20:10

#	Program:	/corina/corina34_cracker 3.40 0067  02.08.2006

@<TRIPOS>MOLECULE
ASD01917768
  43   46    0    0    0
SMALL
NO_CHARGES


@<TRIPOS>ATOM
   1 C1            -0.0162     1.3427     0.0094 C.2     
   2 C2             0.0021    -0.0041     0.0020 C.2     
   3 C3            -1.2280    -0.8758     0.0045 C.3     
   4 C4            -2.4278    -0.0382     0.4643 C.3     
   5 N5            -2.4050     1.2582    -0.2296 N.am    
   6 C6            -1.2771     2.1710     0.0315 C.3     
   7 C7            -3.3897     1.6029    -1.0828 C.2     
   8 O8            -4.3125     0.8381    -1.2870 O.2     
   9 C9            -3.3479     2.9084    -1.7689 C.ar    
  10 O10            1.2559     1.7620    -0.0005 O.3     
  11 C11            2.0406     0.6728    -0.0103 C.2     
  12 N12            1.2847    -0.3909    -0.0084 N.2     
  13 C13            3.5475     0.6778    -0.0221 C.3     
  14 O14            4.0133     0.6844    -1.3731 O.3     
  15 C15            5.3591     0.6895    -1.5618 C.ar    
  16 C16            5.8805     0.6961    -2.8473 C.ar    
  17 C17            7.2489     0.7013    -3.0364 C.ar    
  18 C18            8.0987     0.6998    -1.9458 C.ar    
  19 C19            7.5816     0.6928    -0.6635 C.ar    
  20 C20            6.2139     0.6939    -0.4690 C.ar    
  21 C21           -3.9441     4.0304    -1.1831 C.ar    
  22 C22           -3.8998     5.2497    -1.8326 C.ar    
  23 C23           -3.2689     5.3624    -3.0582 C.ar    
  24 C24           -2.6771     4.2584    -3.6445 C.ar    
  25 C25           -2.7069     3.0327    -3.0062 C.ar    
  26 F26           -2.1278     1.9556    -3.5803 F       
  27 F27           -4.5616     3.9223     0.0136 F       
  28 H28           -1.4102    -1.2532    -1.0017 H       
  29 H29           -1.0821    -1.7114     0.6891 H       
  30 H30           -3.3522    -0.5636     0.2246 H       
  31 H31           -2.3681     0.1236     1.5406 H       
  32 H32           -1.3965     2.6382     1.0090 H       
  33 H33           -1.2321     2.9362    -0.7434 H       
  34 H34            3.9120     1.5670     0.4922 H       
  35 H35            3.9178    -0.2130     0.4854 H       
  36 H36            5.2171     0.6969    -3.6996 H       
  37 H37            7.6553     0.7060    -4.0371 H       
  38 H38            9.1683     0.7038    -2.0957 H       
  39 H39            8.2474     0.6910     0.1868 H       
  40 H40            5.8104     0.6884     0.5327 H       
  41 H41           -4.3595     6.1169    -1.3819 H       
  42 H42           -3.2387     6.3179    -3.5606 H       
  43 H43           -2.1868     4.3550    -4.6019 H       
@<TRIPOS>BOND
   1    1    2 2
   2    1   10 1
   3    1    6 1
   4    2    3 1
   5    2   12 1
   6    3    4 1
   7    3   28 1
   8    3   29 1
   9    4    5 1
  10    4   30 1
  11    4   31 1
  12    5    6 1
  13    5    7 am
  14    6   32 1
  15    6   33 1
  16    7    8 2
  17    7    9 1
  18    9   21 ar
  19    9   25 ar
  20   10   11 1
  21   11   12 2
  22   11   13 1
  23   13   14 1
  24   13   34 1
  25   13   35 1
  26   14   15 1
  27   15   16 ar
  28   15   20 ar
  29   16   17 ar
  30   16   36 1
  31   17   18 ar
  32   17   37 1
  33   18   19 ar
  34   18   38 1
  35   19   20 ar
  36   19   39 1
  37   20   40 1
  38   21   22 ar
  39   21   27 1
  40   22   23 ar
  41   22   41 1
  42   23   24 ar
  43   23   42 1
  44   24   25 ar
  45   24   43 1
  46   25   26 1

#	End of record

