#	Name: ASD01903234
#	Creating user name:	WinNT
#	Creation time:	15. 06. 2019 19:54

#	Modifying user name:	WinNT
#	Modification time:	15. 06. 2019 19:54

#	Program:	/corina/corina34_cracker 3.40 0067  02.08.2006

@<TRIPOS>MOLECULE
ASD01903234
  41   44    0    0    0
SMALL
NO_CHARGES


@<TRIPOS>ATOM
   1 S1             0.1045     1.7266     1.0110 S.3     
   2 C2             0.0823     0.0281     0.8226 C.2     
   3 N3             1.2715    -0.4124     0.5591 N.2     
   4 C4             2.2428     0.4891     0.4868 C.2     
   5 C5             1.8386     1.7533     0.7026 C.2     
   6 N6            -1.0497    -0.7667     0.9362 N.pl3   
   7 C7            -2.2765    -0.1886     1.2220 C.ar    
   8 C8             3.6542     0.1324     0.1930 C.2     
   9 C9             4.1743    -1.1745     0.0548 C.2     
  10 N10            5.4560    -1.0750    -0.2018 N.2     
  11 N11            5.7975     0.2824    -0.2365 N.pl3   
  12 C12            4.6830     1.0061     0.0015 C.2     
  13 N13           -3.3469    -0.9620     1.3270 N.ar    
  14 C14           -4.5327    -0.4423     1.5988 C.ar    
  15 C15           -4.6462     0.9278     1.7739 C.ar    
  16 C16           -3.5059     1.7076     1.6570 C.ar    
  17 N17           -2.3499     1.1238     1.3889 N.ar    
  18 C18           -5.7453    -1.3293     1.7160 C.3     
  19 N19            3.4491    -2.3649     0.1720 N.3     
  20 C20            4.2568    -3.4130     0.8126 C.3     
  21 C21            3.4076    -4.6765     0.9748 C.3     
  22 O22            2.9134    -5.0802    -0.3051 O.3     
  23 C23            2.1219    -4.0834    -0.9572 C.3     
  24 C24            2.9580    -2.8139    -1.1390 C.3     
  25 H25            2.4671     2.6314     0.6889 H       
  26 H26           -0.9822    -1.7268     0.8157 H       
  27 H27            6.6825     0.6413    -0.4063 H       
  28 H28            4.6193     2.0835     0.0402 H       
  29 H29           -5.6023     1.3783     1.9962 H       
  30 H30           -3.5602     2.7783     1.7873 H       
  31 H31           -5.8572    -1.6570     2.7496 H       
  32 H32           -6.6327    -0.7734     1.4130 H       
  33 H33           -5.6233    -2.1989     1.0703 H       
  34 H34            5.1243    -3.6348     0.1911 H       
  35 H35            4.5884    -3.0691     1.7923 H       
  36 H36            4.0188    -5.4741     1.3971 H       
  37 H37            2.5692    -4.4687     1.6397 H       
  38 H38            1.8032    -4.4521    -1.9322 H       
  39 H39            1.2461    -3.8584    -0.3485 H       
  40 H40            2.3416    -2.0327    -1.5838 H       
  41 H41            3.8048    -3.0261    -1.7916 H       
@<TRIPOS>BOND
   1    1    2 1
   2    1    5 1
   3    2    3 2
   4    2    6 1
   5    3    4 1
   6    4    5 2
   7    4    8 1
   8    5   25 1
   9    6    7 1
  10    6   26 1
  11    7   13 ar
  12    7   17 ar
  13    8    9 1
  14    8   12 2
  15    9   10 2
  16    9   19 1
  17   10   11 1
  18   11   12 1
  19   11   27 1
  20   12   28 1
  21   13   14 ar
  22   14   15 ar
  23   14   18 1
  24   15   16 ar
  25   15   29 1
  26   16   17 ar
  27   16   30 1
  28   18   31 1
  29   18   32 1
  30   18   33 1
  31   19   20 1
  32   19   24 1
  33   20   21 1
  34   20   34 1
  35   20   35 1
  36   21   22 1
  37   21   36 1
  38   21   37 1
  39   22   23 1
  40   23   24 1
  41   23   38 1
  42   23   39 1
  43   24   40 1
  44   24   41 1

#	End of record

