#	Name: ASD00170529
#	Creating user name:	WinNT
#	Creation time:	15. 06. 2019 18:32

#	Modifying user name:	WinNT
#	Modification time:	15. 06. 2019 18:32

#	Program:	/corina/corina34_cracker 3.40 0067  02.08.2006

@<TRIPOS>MOLECULE
ASD00170529
  56   60    0    0    0
SMALL
NO_CHARGES


@<TRIPOS>ATOM
   1 C1            -0.0664     1.4264    -0.0295 C.ar    
   2 N2            -0.0328     0.0337    -0.0333 N.3     
   3 C3             0.5392    -0.4760    -1.2873 C.3     
   4 C4             0.6319    -2.0022    -1.2196 C.3     
   5 N5            -0.7073    -2.5618    -0.9892 N.3     
   6 C6            -1.2793    -2.0522     0.2649 C.3     
   7 C7            -1.3719    -0.5260     0.1971 C.3     
   8 C8            -0.6719    -4.0304    -0.9932 C.3     
   9 C9            -1.9968    -4.5661    -0.5149 C.2     
  10 C10           -2.2057    -4.9981     0.7189 C.2     
  11 S11           -3.8600    -5.5471     0.9189 S.3     
  12 C12           -4.2583    -5.1801    -0.6972 C.2     
  13 C13           -3.1714    -4.6546    -1.3568 C.2     
  14 C14           -3.1970    -4.2394    -2.7591 C.2     
  15 O15           -3.5796    -3.1223    -3.0564 O.2     
  16 C16           -2.7581    -5.1763    -3.8157 C.ar    
  17 C17           -2.6736    -4.7475    -5.1416 C.ar    
  18 C18           -2.2638    -5.6257    -6.1226 C.ar    
  19 C19           -1.9363    -6.9310    -5.7947 C.ar    
  20 C20           -2.0183    -7.3622    -4.4809 C.ar    
  21 C21           -2.4213    -6.4915    -3.4904 C.ar    
  22 Cl22          -1.4218    -8.0310    -7.0352 Cl      
  23 N23           -5.5010    -5.3774    -1.2641 N.pl3   
  24 C24           -1.2726     2.0932    -0.0515 C.ar    
  25 C25           -1.3169     3.4843    -0.0485 C.ar    
  26 C26           -0.1742     4.2240    -0.0233 C.ar    
  27 C27            1.0765     3.5831     0.0002 C.ar    
  28 C28            1.1347     2.1679     0.0028 C.ar    
  29 C29            2.2725     4.3212     0.0265 C.ar    
  30 C30            3.4665     3.6683     0.0487 C.ar    
  31 C31            3.5226     2.2760     0.0458 C.ar    
  32 C32            2.3842     1.5292     0.0262 C.ar    
  33 H33           -0.0993    -0.1871    -2.1221 H       
  34 H34            1.5355    -0.0571    -1.4292 H       
  35 H35            1.0290    -2.3845    -2.1599 H       
  36 H36            1.2921    -2.2904    -0.4016 H       
  37 H37           -2.2756    -2.4711     0.4068 H       
  38 H38           -0.6408    -2.3411     1.0997 H       
  39 H39           -1.7690    -0.1437     1.1374 H       
  40 H40           -2.0322    -0.2377    -0.6208 H       
  41 H41           -0.4800    -4.3865    -2.0053 H       
  42 H42            0.1208    -4.3766    -0.3298 H       
  43 H43           -1.4578    -5.0112     1.4979 H       
  44 H44           -2.9290    -3.7301    -5.3985 H       
  45 H45           -2.1983    -5.2952    -7.1487 H       
  46 H46           -1.7617    -8.3811    -4.2312 H       
  47 H47           -2.4844    -6.8288    -2.4664 H       
  48 H48           -6.2014    -5.8165    -0.7566 H       
  49 H49           -5.6741    -5.0770    -2.1700 H       
  50 H50           -2.1938     1.5297    -0.0717 H       
  51 H51           -2.2735     3.9853    -0.0667 H       
  52 H52           -0.2288     5.3026    -0.0217 H       
  53 H53            2.2441     5.4008     0.0287 H       
  54 H54            4.3840     4.2377     0.0686 H       
  55 H55            4.4829     1.7820     0.0634 H       
  56 H56            2.4426     0.4508     0.0245 H       
@<TRIPOS>BOND
   1    1    2 1
   2    1   24 ar
   3    1   28 ar
   4    2    3 1
   5    2    7 1
   6    3    4 1
   7    3   33 1
   8    3   34 1
   9    4    5 1
  10    4   35 1
  11    4   36 1
  12    5    6 1
  13    5    8 1
  14    6    7 1
  15    6   37 1
  16    6   38 1
  17    7   39 1
  18    7   40 1
  19    8    9 1
  20    8   41 1
  21    8   42 1
  22    9   10 2
  23    9   13 1
  24   10   11 1
  25   10   43 1
  26   11   12 1
  27   12   13 2
  28   12   23 1
  29   13   14 1
  30   14   15 2
  31   14   16 1
  32   16   17 ar
  33   16   21 ar
  34   17   18 ar
  35   17   44 1
  36   18   19 ar
  37   18   45 1
  38   19   20 ar
  39   19   22 1
  40   20   21 ar
  41   20   46 1
  42   21   47 1
  43   23   48 1
  44   23   49 1
  45   24   25 ar
  46   24   50 1
  47   25   26 ar
  48   25   51 1
  49   26   27 ar
  50   26   52 1
  51   27   28 ar
  52   27   29 ar
  53   28   32 ar
  54   29   30 ar
  55   29   53 1
  56   30   31 ar
  57   30   54 1
  58   31   32 ar
  59   31   55 1
  60   32   56 1

#	End of record

