#	Name: ASD05430371
#	Creating user name:	WinNT
#	Creation time:	15. 06. 2019 21:00

#	Modifying user name:	WinNT
#	Modification time:	15. 06. 2019 21:00

#	Program:	/corina/corina34_cracker 3.40 0067  02.08.2006

@<TRIPOS>MOLECULE
ASD05430371
  62   66    0    0    0
SMALL
NO_CHARGES


@<TRIPOS>ATOM
   1 C1            -0.1628     1.2204     0.9444 C.ar    
   2 C2            -0.0148    -0.0172     0.3186 C.ar    
   3 C3            -1.0725    -0.5711    -0.3915 C.ar    
   4 C4            -2.2725     0.0996    -0.4812 C.ar    
   5 C5            -2.4283     1.3412     0.1438 C.ar    
   6 C6            -1.3654     1.8962     0.8634 C.ar    
   7 C7            -4.8620     1.3700    -0.0453 C.2     
   8 C8            -3.7095     2.0592     0.0490 C.2     
   9 N9            -7.3433     1.3109    -0.1897 N.pl3   
  10 C10           -6.1612     2.0348    -0.3067 C.2     
  11 C11           -8.9974     2.5370     1.1320 C.ar    
  12 C12          -10.3607     2.6490     1.3317 C.ar    
  13 C13           -8.1279     2.6747     2.1979 C.ar    
  14 C14           -8.6210     2.9242     3.4647 C.ar    
  15 C15           -9.9862     3.0366     3.6659 C.ar    
  16 C16          -10.8560     2.8989     2.5974 C.ar    
  17 F17          -10.4693     3.2800     4.9038 F       
  18 O18            0.8743     1.7593     1.6389 O.3     
  19 C19            0.6524     3.0297     2.2545 C.3     
  20 C20            1.3766    -2.0147     0.7657 C.2     
  21 N21            1.2037    -0.7031     0.4059 N.pl3   
  22 C22            2.6996    -2.2610     0.7179 C.2     
  23 N23            3.3221    -1.1346     0.3399 N.2     
  24 C24            2.4370    -0.1943     0.1500 C.2     
  25 C25            3.3659    -3.5751     1.0348 C.3     
  26 N26           -7.3777    -0.0475    -0.0640 N.3     
  27 C27           -6.2485    -0.5260     0.7495 C.3     
  28 C28           -4.9161    -0.1392     0.1027 C.3     
  29 C29           -8.4589     2.2583    -0.2477 C.3     
  30 C30           -7.7917     3.5201    -0.8427 C.3     
  31 N31           -6.3522     3.2614    -0.6708 N.2     
  32 C32           -8.6603    -0.4919     0.4978 C.3     
  33 C33           -8.1398     3.6651    -2.3255 C.3     
  34 O34           -7.6093     4.8960    -2.8211 O.3     
  35 H35           -0.9536    -1.5297    -0.8746 H       
  36 H36           -3.0929    -0.3332    -1.0345 H       
  37 H37           -1.4815     2.8546     1.3475 H       
  38 H38           -3.7251     3.1391     0.0551 H       
  39 H39          -11.0390     2.5416     0.4981 H       
  40 H40           -7.0631     2.5869     2.0408 H       
  41 H41           -7.9416     3.0310     4.2974 H       
  42 H42          -11.9211     2.9868     2.7531 H       
  43 H43            0.3984     3.7643     1.4903 H       
  44 H44           -0.1676     2.9493     2.9681 H       
  45 H45            1.5572     3.3444     2.7746 H       
  46 H46            0.6011    -2.7146     1.0396 H       
  47 H47            2.6495     0.8185    -0.1589 H       
  48 H48            3.4384    -4.1740     0.1269 H       
  49 H49            4.3652    -3.3901     1.4288 H       
  50 H50            2.7759    -4.1117     1.7778 H       
  51 H51           -6.3055    -0.0786     1.7418 H       
  52 H52           -6.3060    -1.6106     0.8413 H       
  53 H53           -4.8381    -0.6053    -0.8795 H       
  54 H54           -4.0930    -0.4739     0.7340 H       
  55 H55           -9.2464     1.8898    -0.9050 H       
  56 H56           -8.0906     4.4098    -0.2884 H       
  57 H57           -9.4721    -0.1810    -0.1598 H       
  58 H58           -8.6609    -1.5782     0.5872 H       
  59 H59           -8.7995    -0.0462     1.4827 H       
  60 H60           -7.7091     2.8333    -2.8828 H       
  61 H61           -9.2230     3.6615    -2.4465 H       
  62 H62           -7.7923     5.0545    -3.7573 H       
@<TRIPOS>BOND
   1    1    2 ar
   2    1   18 1
   3    1    6 ar
   4    2    3 ar
   5    2   21 1
   6    3    4 ar
   7    3   35 1
   8    4    5 ar
   9    4   36 1
  10    5    6 ar
  11    5    8 1
  12    6   37 1
  13    7    8 2
  14    7   28 1
  15    7   10 1
  16    8   38 1
  17    9   10 1
  18    9   29 1
  19    9   26 1
  20   10   31 2
  21   11   12 ar
  22   11   13 ar
  23   11   29 1
  24   12   16 ar
  25   12   39 1
  26   13   14 ar
  27   13   40 1
  28   14   15 ar
  29   14   41 1
  30   15   16 ar
  31   15   17 1
  32   16   42 1
  33   18   19 1
  34   19   43 1
  35   19   44 1
  36   19   45 1
  37   20   21 1
  38   20   22 2
  39   20   46 1
  40   21   24 1
  41   22   23 1
  42   22   25 1
  43   23   24 2
  44   24   47 1
  45   25   48 1
  46   25   49 1
  47   25   50 1
  48   26   27 1
  49   26   32 1
  50   27   28 1
  51   27   51 1
  52   27   52 1
  53   28   53 1
  54   28   54 1
  55   29   30 1
  56   29   55 1
  57   30   31 1
  58   30   33 1
  59   30   56 1
  60   32   57 1
  61   32   58 1
  62   32   59 1
  63   33   34 1
  64   33   60 1
  65   33   61 1
  66   34   62 1

#	End of record

