#	Name: ASD03330566
#	Creating user name:	WinNT
#	Creation time:	15. 06. 2019 20:37

#	Modifying user name:	WinNT
#	Modification time:	15. 06. 2019 20:37

#	Program:	/corina/corina34_cracker 3.40 0067  02.08.2006

@<TRIPOS>MOLECULE
ASD03330566
  60   62    0    0    0
SMALL
NO_CHARGES


@<TRIPOS>ATOM
   1 C1            -0.5218     1.8015    -0.6107 C.2     
   2 N2            -0.6461     0.4687    -0.8510 N.pl3   
   3 C3             0.8104     2.0708    -0.5280 C.2     
   4 N4             1.4785     0.9144    -0.7340 N.2     
   5 C5             0.6124    -0.0514    -0.9345 C.2     
   6 C6             0.9451    -1.4665    -1.2050 C.ar    
   7 C7             1.4153     3.3879    -0.2622 C.2     
   8 O8             0.7048     4.3604    -0.0931 O.2     
   9 C9             3.3573     4.8243     0.0577 C.3     
  10 N10            2.7559     3.5148    -0.2065 N.am    
  11 C11            3.4190     5.0618     1.5679 C.3     
  12 C12            4.2235     3.9403     2.2281 C.3     
  13 C13            4.0950     6.4060     1.8456 C.3     
  14 C14            2.0001     5.0766     2.1402 C.3     
  15 C15            4.7512     4.8615    -0.5140 C.2     
  16 N16            5.3510     6.0449    -0.7510 N.am    
  17 O17            5.3332     3.8265    -0.7608 O.2     
  18 C18            6.6648     6.0837    -1.3980 C.3     
  19 C19           -1.9127    -0.2572    -0.9786 C.3     
  20 C20           -2.8451     0.5198    -1.9133 C.3     
  21 C21           -3.6432     1.5430    -1.1118 C.3     
  22 N22           -2.8529     2.0738     0.0007 N.3     
  23 C23           -1.6584     2.7823    -0.4826 C.3     
  24 C24           -3.6691     2.9428     0.8589 C.3     
  25 C25            1.8983    -1.7900    -2.1744 C.ar    
  26 C26            2.2048    -3.1147    -2.4219 C.ar    
  27 C27            1.5691    -4.1190    -1.7110 C.ar    
  28 C28            0.6226    -3.8022    -0.7488 C.ar    
  29 C29            0.3127    -2.4839    -0.4892 C.ar    
  30 F30            2.5181    -0.8104    -2.8682 F       
  31 F31            1.8721    -5.4124    -1.9565 F       
  32 H32            2.7527     5.6025    -0.4081 H       
  33 H33            3.3225     2.7392    -0.3414 H       
  34 H34            5.2344     3.9298     1.8204 H       
  35 H35            4.2675     4.1095     3.3040 H       
  36 H36            3.7419     2.9827     2.0303 H       
  37 H37            3.5061     7.2077     1.4001 H       
  38 H38            4.1653     6.5618     2.9221 H       
  39 H39            5.0952     6.4060     1.4124 H       
  40 H40            1.5186     4.1190     1.9424 H       
  41 H41            2.0441     5.2458     3.2161 H       
  42 H42            1.4270     5.8756     1.6698 H       
  43 H43            4.9128     6.8710    -0.4932 H       
  44 H44            7.3864     5.5402    -0.7880 H       
  45 H45            6.5989     5.6201    -2.3823 H       
  46 H46            6.9867     7.1195    -1.5051 H       
  47 H47           -1.7247    -1.2479    -1.3925 H       
  48 H48           -2.3778    -0.3535     0.0025 H       
  49 H49           -2.2531     1.0342    -2.6702 H       
  50 H50           -3.5306    -0.1738    -2.4001 H       
  51 H51           -3.9335     2.3637    -1.7678 H       
  52 H52           -4.5410     1.0670    -0.7175 H       
  53 H53           -1.3867     3.5644     0.2263 H       
  54 H54           -1.8672     3.2272    -1.4555 H       
  55 H55           -4.5042     2.3718     1.2647 H       
  56 H56           -3.0576     3.3234     1.6770 H       
  57 H57           -4.0512     3.7779     0.2719 H       
  58 H58            2.9408    -3.3670    -3.1709 H       
  59 H59            0.1297    -4.5898    -0.1982 H       
  60 H60           -0.4247    -2.2394     0.2611 H       
@<TRIPOS>BOND
   1    1    2 1
   2    1    3 2
   3    1   23 1
   4    2   19 1
   5    2    5 1
   6    3    4 1
   7    3    7 1
   8    4    5 2
   9    5    6 1
  10    6   25 ar
  11    6   29 ar
  12    7    8 2
  13    7   10 am
  14    9   10 1
  15    9   11 1
  16    9   15 1
  17    9   32 1
  18   10   33 1
  19   11   12 1
  20   11   13 1
  21   11   14 1
  22   12   34 1
  23   12   35 1
  24   12   36 1
  25   13   37 1
  26   13   38 1
  27   13   39 1
  28   14   40 1
  29   14   41 1
  30   14   42 1
  31   15   16 am
  32   15   17 2
  33   16   18 1
  34   16   43 1
  35   18   44 1
  36   18   45 1
  37   18   46 1
  38   19   20 1
  39   19   47 1
  40   19   48 1
  41   20   21 1
  42   20   49 1
  43   20   50 1
  44   21   22 1
  45   21   51 1
  46   21   52 1
  47   22   23 1
  48   22   24 1
  49   23   53 1
  50   23   54 1
  51   24   55 1
  52   24   56 1
  53   24   57 1
  54   25   26 ar
  55   25   30 1
  56   26   27 ar
  57   26   58 1
  58   27   28 ar
  59   27   31 1
  60   28   29 ar
  61   28   59 1
  62   29   60 1

#	End of record

