#	Name: ASD02560146
#	Creating user name:	WinNT
#	Creation time:	15. 06. 2019 20:24

#	Modifying user name:	WinNT
#	Modification time:	15. 06. 2019 20:24

#	Program:	/corina/corina34_cracker 3.40 0067  02.08.2006

@<TRIPOS>MOLECULE
ASD02560146
  61   64    0    0    0
SMALL
NO_CHARGES


@<TRIPOS>ATOM
   1 N1            -0.2091     1.6625    -0.2833 N.2     
   2 N2            -0.6137     0.4966    -0.3273 N.2     
   3 C3             1.2571     1.7188    -0.3476 C.3     
   4 N4             1.7027     0.3359    -0.0420 N.3     
   5 C5             0.5042    -0.4503    -0.4295 C.3     
   6 S6             0.2628    -1.8385     0.7130 S.3     
   7 C7             0.0550    -1.0159     2.3164 C.3     
   8 C8            -0.1590    -2.0527     3.3889 C.2     
   9 O9            -0.1703    -3.2306     3.1000 O.2     
  10 N10           -0.3379    -1.6711     4.6690 N.am    
  11 C11            2.8039    -0.0170    -0.8189 C.ar    
  12 C12           -0.6498    -2.6231     5.6459 C.ar    
  13 C13           -0.3533    -2.3745     6.9798 C.ar    
  14 C14           -0.6624    -3.3161     7.9414 C.ar    
  15 C15           -1.2665    -4.5058     7.5774 C.ar    
  16 C16           -1.5626    -4.7565     6.2504 C.ar    
  17 C17           -1.2616    -3.8161     5.2844 C.ar    
  18 S18           -1.6592    -5.7047     8.8075 S.o2    
  19 O19           -1.7285    -6.9570     8.1396 O.2     
  20 O20           -0.7894    -5.4553     9.9031 O.2     
  21 C21            3.9715     0.7758    -0.8011 C.ar    
  22 C22            2.7653    -1.1471    -1.6079 C.ar    
  23 C23            3.8599    -1.5085    -2.3872 C.ar    
  24 C24            4.9971    -0.7594    -2.3926 C.ar    
  25 C25            5.0793     0.3973    -1.5990 C.ar    
  26 C26            6.2402     1.1899    -1.5853 C.ar    
  27 C27            6.2858     2.3042    -0.8051 C.ar    
  28 C28            5.1971     2.6732    -0.0174 C.ar    
  29 C29            4.0554     1.9313    -0.0087 C.ar    
  30 N30           -3.1913    -5.3746     9.3423 N.am    
  31 C31            1.7135     2.1282    -1.7494 C.3     
  32 F32            0.8449     3.1001    -2.2574 F       
  33 F33            3.0100     2.6498    -1.6839 F       
  34 C34            1.5235    -2.0008    -1.6262 C.3     
  35 C35            0.3055    -1.0787     7.3772 C.3     
  36 C36            6.1686    -1.1734    -3.2454 C.3     
  37 H37            1.6432     2.4152     0.3967 H       
  38 H38            0.6025    -0.8126    -1.4529 H       
  39 H39            0.9487    -0.4354     2.5454 H       
  40 H40           -0.8087    -0.3523     2.2751 H       
  41 H41           -0.2505    -0.7364     4.9132 H       
  42 H42           -0.4317    -3.1235     8.9788 H       
  43 H43           -2.0341    -5.6866     5.9693 H       
  44 H44           -1.4934    -4.0124     4.2480 H       
  45 H45            3.8070    -2.3980    -2.9974 H       
  46 H46            7.0917     0.9158    -2.1904 H       
  47 H47            7.1790     2.9112    -0.7961 H       
  48 H48            5.2588     3.5621     0.5928 H       
  49 H49            3.2193     2.2292     0.6066 H       
  50 H50           -3.6849    -4.6276     8.9691 H       
  51 H51           -3.5952    -5.9282    10.0288 H       
  52 H52            1.7054     1.2561    -2.4033 H       
  53 H53            0.8444    -1.6379    -2.3976 H       
  54 H54            1.7963    -3.0344    -1.8393 H       
  55 H55            1.0318    -1.9477    -0.6549 H       
  56 H56           -0.4600    -0.3347     7.5981 H       
  57 H57            0.9210    -1.2404     8.2621 H       
  58 H58            0.9319    -0.7236     6.5589 H       
  59 H59            6.0802    -0.7161    -4.2309 H       
  60 H60            7.0950    -0.8451    -2.7742 H       
  61 H61            6.1778    -2.2585    -3.3479 H       
@<TRIPOS>BOND
   1    1    2 2
   2    1    3 1
   3    2    5 1
   4    3    4 1
   5    3   31 1
   6    3   37 1
   7    4    5 1
   8    4   11 1
   9    5    6 1
  10    5   38 1
  11    6    7 1
  12    7    8 1
  13    7   39 1
  14    7   40 1
  15    8    9 2
  16    8   10 am
  17   10   12 1
  18   10   41 1
  19   11   21 ar
  20   11   22 ar
  21   12   13 ar
  22   12   17 ar
  23   13   14 ar
  24   13   35 1
  25   14   15 ar
  26   14   42 1
  27   15   16 ar
  28   15   18 1
  29   16   17 ar
  30   16   43 1
  31   17   44 1
  32   18   19 2
  33   18   20 2
  34   18   30 am
  35   21   25 ar
  36   21   29 ar
  37   22   23 ar
  38   22   34 1
  39   23   24 ar
  40   23   45 1
  41   24   25 ar
  42   24   36 1
  43   25   26 ar
  44   26   27 ar
  45   26   46 1
  46   27   28 ar
  47   27   47 1
  48   28   29 ar
  49   28   48 1
  50   29   49 1
  51   30   50 1
  52   30   51 1
  53   31   32 1
  54   31   33 1
  55   31   52 1
  56   34   53 1
  57   34   54 1
  58   34   55 1
  59   35   56 1
  60   35   57 1
  61   35   58 1
  62   36   59 1
  63   36   60 1
  64   36   61 1

#	End of record

