#	Name: ASD03090218
#	Creating user name:	WinNT
#	Creation time:	15. 06. 2019 20:28

#	Modifying user name:	WinNT
#	Modification time:	15. 06. 2019 20:28

#	Program:	/corina/corina34_cracker 3.40 0067  02.08.2006

@<TRIPOS>MOLECULE
ASD03090218
  48   50    0    0    0
SMALL
NO_CHARGES


@<TRIPOS>ATOM
   1 C1             0.1963     1.0467     0.8735 C.ar    
   2 N2            -0.9169     1.4730     1.4390 N.ar    
   3 C3            -2.0632     0.8450     1.2781 C.ar    
   4 C4            -2.1374    -0.3067     0.4944 C.ar    
   5 C5            -0.9737    -0.7834    -0.1185 C.ar    
   6 C6             0.2047    -0.0840     0.0773 C.ar    
   7 C7            -3.4254    -1.0125     0.3147 C.2     
   8 N8            -6.9314    -1.2501     0.4124 N.pl3   
   9 C9            -7.4310    -0.0699     0.9694 C.ar    
  10 C10           -6.6998     0.6072     1.9370 C.ar    
  11 C11           -7.1964     1.7737     2.4851 C.ar    
  12 C12           -8.4201     2.2673     2.0719 C.ar    
  13 C13           -9.1510     1.5954     1.1089 C.ar    
  14 C14           -8.6577     0.4320     0.5524 C.ar    
  15 N15           -4.6225    -0.5135     0.5499 N.2     
  16 C16           -5.5532    -1.4301     0.2785 C.2     
  17 N17           -4.9646    -2.5288    -0.1344 N.2     
  18 N18           -3.5824    -2.2811    -0.1253 N.pl3   
  19 C19           -2.5207    -3.2151    -0.5082 C.3     
  20 C20           -2.2797    -3.1229    -2.0163 C.3     
  21 O21           -1.2441    -4.0339    -2.3897 O.3     
  22 C22            1.4782     1.8078     1.0938 C.3     
  23 C23            2.2527     1.1776     2.2530 C.3     
  24 C24            2.3284     1.7534    -0.1771 C.3     
  25 C25          -10.4847     2.1367     0.6625 C.3     
  26 F26          -10.7658     3.3169     1.3591 F       
  27 F27          -10.4437     2.4038    -0.7102 F       
  28 F28          -11.4827     1.1919     0.9241 F       
  29 H29           -2.9535     1.2247     1.7574 H       
  30 H30           -0.9948    -1.6722    -0.7316 H       
  31 H31            1.1226    -0.4225    -0.3801 H       
  32 H32           -7.5420    -1.9443     0.1188 H       
  33 H33           -5.7442     0.2218     2.2606 H       
  34 H34           -6.6284     2.3006     3.2374 H       
  35 H35           -8.8062     3.1795     2.5024 H       
  36 H36           -9.2289    -0.0922    -0.1995 H       
  37 H37           -1.6035    -2.9599     0.0226 H       
  38 H38           -2.8196    -4.2308    -0.2494 H       
  39 H39           -3.1969    -3.3780    -2.5470 H       
  40 H40           -1.9808    -2.1071    -2.2750 H       
  41 H41           -1.0378    -4.0291    -3.3345 H       
  42 H42            1.2478     2.8461     1.3326 H       
  43 H43            2.4831     0.1393     2.0141 H       
  44 H44            3.1799     1.7281     2.4123 H       
  45 H45            1.6470     1.2164     3.1583 H       
  46 H46            1.7766     2.2024    -1.0029 H       
  47 H47            3.2556     2.3039    -0.0178 H       
  48 H48            2.5587     0.7151    -0.4159 H       
@<TRIPOS>BOND
   1    1    2 ar
   2    1   22 1
   3    1    6 ar
   4    2    3 ar
   5    3    4 ar
   6    3   29 1
   7    4    5 ar
   8    4    7 1
   9    5    6 ar
  10    5   30 1
  11    6   31 1
  12    7   15 2
  13    7   18 1
  14    8    9 1
  15    8   16 1
  16    8   32 1
  17    9   10 ar
  18    9   14 ar
  19   10   11 ar
  20   10   33 1
  21   11   12 ar
  22   11   34 1
  23   12   13 ar
  24   12   35 1
  25   13   14 ar
  26   13   25 1
  27   14   36 1
  28   15   16 1
  29   16   17 2
  30   17   18 1
  31   18   19 1
  32   19   20 1
  33   19   37 1
  34   19   38 1
  35   20   21 1
  36   20   39 1
  37   20   40 1
  38   21   41 1
  39   22   23 1
  40   22   24 1
  41   22   42 1
  42   23   43 1
  43   23   44 1
  44   23   45 1
  45   24   46 1
  46   24   47 1
  47   24   48 1
  48   25   26 1
  49   25   27 1
  50   25   28 1

#	End of record

