#	Name: ASD01230015
#	Creating user name:	WinNT
#	Creation time:	15. 06. 2019 19:11

#	Modifying user name:	WinNT
#	Modification time:	15. 06. 2019 19:11

#	Program:	/corina/corina34_cracker 3.40 0067  02.08.2006

@<TRIPOS>MOLECULE
ASD01230015
  56   58    0    0    0
SMALL
NO_CHARGES


@<TRIPOS>ATOM
   1 C1            -3.1856     1.3099     1.3674 C.3     
   2 C2            -2.8260    -0.1756     1.4357 C.3     
   3 C3            -4.1022    -1.0142     1.3411 C.3     
   4 S4            -1.7234    -0.5948     0.0576 S.o2    
   5 O5            -2.4189    -0.5160    -1.1791 O.2     
   6 O6            -0.4562     0.0257     0.2263 O.2     
   7 N7            -1.4160    -2.2105     0.2510 N.am    
   8 C8            -1.6353    -3.2297     2.4979 C.3     
   9 C9            -0.6735    -2.6796     1.4235 C.3     
  10 C10            0.1772    -3.9190     1.0743 C.3     
  11 C11            0.1446    -4.7847     2.3159 C.ar    
  12 C12            0.9615    -5.8338     2.6961 C.ar    
  13 C13            0.7372    -6.4923     3.9017 C.ar    
  14 C14           -0.3141    -6.0892     4.7229 C.ar    
  15 C15           -1.1234    -5.0424     4.3359 C.ar    
  16 C16           -0.8975    -4.3885     3.1347 C.ar    
  17 C17            1.6129    -7.6186     4.3103 C.ar    
  18 C18            2.6637    -8.0208     3.4875 C.ar    
  19 C19            3.4774    -9.0686     3.8690 C.ar    
  20 C20            3.2543    -9.7218     5.0665 C.ar    
  21 C21            2.2093    -9.3276     5.8927 C.ar    
  22 C22            1.3906    -8.2724     5.5190 C.ar    
  23 N23            1.9862    -9.9916     7.1042 N.am    
  24 C24            3.0296   -10.4509     7.8230 C.2     
  25 C25            2.7982   -11.0634     9.1804 C.3     
  26 O26            4.1549   -10.3713     7.3775 O.2     
  27 C27            1.8811   -12.2801     9.0412 C.3     
  28 C28            4.1373   -11.4998     9.7780 C.3     
  29 H29           -3.8481     1.5618     2.1956 H       
  30 H30           -2.2764     1.9073     1.4349 H       
  31 H31           -3.6885     1.5190     0.4233 H       
  32 H32           -2.3230    -0.3847     2.3799 H       
  33 H33           -4.6507    -0.7407     0.4397 H       
  34 H34           -3.8401    -2.0714     1.3001 H       
  35 H35           -4.7251    -0.8279     2.2160 H       
  36 H36           -1.7276    -2.8463    -0.4120 H       
  37 H37           -1.8494    -2.4627     3.2422 H       
  38 H38           -2.5592    -3.5777     2.0359 H       
  39 H39           -0.0525    -1.8821     1.8314 H       
  40 H40           -0.2599    -4.4521     0.2300 H       
  41 H41            1.2012    -3.6229     0.8464 H       
  42 H42            1.7749    -6.1429     2.0563 H       
  43 H43           -0.4944    -6.5957     5.6595 H       
  44 H44           -1.9381    -4.7299     4.9724 H       
  45 H45            2.8410    -7.5128     2.5511 H       
  46 H46            4.2906    -9.3791     3.2297 H       
  47 H47            3.8938   -10.5410     5.3604 H       
  48 H48            0.5803    -7.9617     6.1618 H       
  49 H49            1.0806   -10.1213     7.4265 H       
  50 H50            2.3302   -10.3287     9.8355 H       
  51 H51            0.9271   -11.9692     8.6154 H       
  52 H52            2.3491   -13.0149     8.3860 H       
  53 H53            1.7137   -12.7231    10.0229 H       
  54 H54            4.7907   -10.6330     9.8772 H       
  55 H55            3.9699   -11.9429    10.7597 H       
  56 H56            4.6054   -12.2346     9.1229 H       
@<TRIPOS>BOND
   1    1    2 1
   2    1   29 1
   3    1   30 1
   4    1   31 1
   5    2    3 1
   6    2    4 1
   7    2   32 1
   8    3   33 1
   9    3   34 1
  10    3   35 1
  11    4    5 2
  12    4    6 2
  13    4    7 am
  14    7    9 1
  15    7   36 1
  16    8    9 1
  17    8   16 1
  18    8   37 1
  19    8   38 1
  20    9   10 1
  21    9   39 1
  22   10   11 1
  23   10   40 1
  24   10   41 1
  25   11   12 ar
  26   11   16 ar
  27   12   13 ar
  28   12   42 1
  29   13   14 ar
  30   13   17 1
  31   14   15 ar
  32   14   43 1
  33   15   16 ar
  34   15   44 1
  35   17   18 ar
  36   17   22 ar
  37   18   19 ar
  38   18   45 1
  39   19   20 ar
  40   19   46 1
  41   20   21 ar
  42   20   47 1
  43   21   22 ar
  44   21   23 1
  45   22   48 1
  46   23   24 am
  47   23   49 1
  48   24   25 1
  49   24   26 2
  50   25   27 1
  51   25   28 1
  52   25   50 1
  53   27   51 1
  54   27   52 1
  55   27   53 1
  56   28   54 1
  57   28   55 1
  58   28   56 1

#	End of record

