#	Name: ASD00570017
#	Creating user name:	WinNT
#	Creation time:	15. 06. 2019 18:36

#	Modifying user name:	WinNT
#	Modification time:	15. 06. 2019 18:36

#	Program:	/corina/corina34_cracker 3.40 0067  02.08.2006

@<TRIPOS>MOLECULE
ASD00570017
  36   38    0    0    0
SMALL
NO_CHARGES


@<TRIPOS>ATOM
   1 N1             0.0173     1.0716    -0.4044 N.pl3   
   2 C2            -0.9959    -1.2517    -0.6855 C.ar    
   3 O3             2.4250     3.3482    -1.4540 O.3     
   4 Cl4           -0.1388     9.2561    -2.9261 Cl      
   5 Cl5            2.1742    10.8226    -4.3143 Cl      
   6 C6            -0.6625    -2.5736    -0.8899 C.ar    
   7 N7             2.0991     0.4470    -0.5941 N.2     
   8 O8             1.7581     5.4100    -0.9743 O.2     
   9 C9             0.6670    -2.9535    -1.0084 C.ar    
  10 N10            2.9188     5.1517    -2.8496 N.am    
  11 C11            1.6668    -2.0265    -0.9234 C.ar    
  12 C12            0.0067    -0.2953    -0.5978 C.ar    
  13 C13            1.3526    -0.6804    -0.7178 C.ar    
  14 C14            1.3176     1.4711    -0.4109 C.2     
  15 C15            1.7849     2.8927    -0.2329 C.3     
  16 C16            2.3459     4.6634    -1.7317 C.2     
  17 C17            2.7415     6.4963    -3.1971 C.ar    
  18 C18            3.7691     7.1960    -3.8153 C.ar    
  19 C19            3.5923     8.5227    -4.1573 C.ar    
  20 C20            2.3926     9.1550    -3.8842 C.ar    
  21 C21            1.3655     8.4597    -3.2675 C.ar    
  22 C22            1.5356     7.1306    -2.9291 C.ar    
  23 C23            2.7851     2.9598     0.9230 C.3     
  24 H24           -0.7589     1.6419    -0.2894 H       
  25 H25           -2.0321    -0.9614    -0.5944 H       
  26 H26           -1.4413    -3.3188    -0.9580 H       
  27 H27            0.9138    -3.9927    -1.1683 H       
  28 H28            3.4540     4.5716    -3.4135 H       
  29 H29            2.6981    -2.3331    -1.0167 H       
  30 H30            0.9298     3.5311    -0.0109 H       
  31 H31            4.7063     6.7034    -4.0283 H       
  32 H32            4.3916     9.0670    -4.6382 H       
  33 H33            0.7332     6.5871    -2.4526 H       
  34 H34            3.1231     3.9881     1.0517 H       
  35 H35            2.3046     2.6178     1.8396 H       
  36 H36            3.6402     2.3214     0.7010 H       
@<TRIPOS>BOND
   1    1   12 1
   2    1   14 1
   3    1   24 1
   4    2    6 ar
   5    2   12 ar
   6    2   25 1
   7    3   15 1
   8    3   16 1
   9    4   21 1
  10    5   20 1
  11    6    9 ar
  12    6   26 1
  13    7   13 1
  14    7   14 2
  15    8   16 2
  16    9   11 ar
  17    9   27 1
  18   10   16 am
  19   10   17 1
  20   10   28 1
  21   11   13 ar
  22   11   29 1
  23   12   13 ar
  24   14   15 1
  25   15   23 1
  26   15   30 1
  27   17   18 ar
  28   17   22 ar
  29   18   19 ar
  30   18   31 1
  31   19   20 ar
  32   19   32 1
  33   20   21 ar
  34   21   22 ar
  35   22   33 1
  36   23   34 1
  37   23   35 1
  38   23   36 1

#	End of record

