#	Name: ASD01910235
#	Creating user name:	WinNT
#	Creation time:	15. 06. 2019 19:55

#	Modifying user name:	WinNT
#	Modification time:	15. 06. 2019 19:55

#	Program:	/corina/corina34_cracker 3.40 0067  02.08.2006

@<TRIPOS>MOLECULE
ASD01910235
  44   47    0    0    0
SMALL
NO_CHARGES


@<TRIPOS>ATOM
   1 C1             0.6237     0.5051     0.4143 C.2     
   2 C2             1.8012     1.4454     0.3998 C.3     
   3 C3             2.1184     1.8447    -1.0432 C.3     
   4 C4             3.3344     2.7737    -1.0617 C.3     
   5 C5             3.0136     4.0440    -0.2679 C.3     
   6 N6             2.5677     3.6604     1.0785 N.am    
   7 C7             1.4630     2.7007     1.2101 C.3     
   8 C8             3.1608     4.1790     2.1720 C.2     
   9 C9             4.3241     5.0777     2.0253 C.ar    
  10 O10            2.7384     3.9073     3.2791 O.2     
  11 N11            0.6130    -0.7210     0.8748 N.2     
  12 C12           -0.6474    -1.1709     0.6807 C.2     
  13 N13           -1.3213    -0.2009     0.1191 N.2     
  14 O14           -0.6075     0.7675    -0.0352 O.3     
  15 C15           -1.1681    -2.5138     1.0372 C.ar    
  16 C16           -2.4977    -2.8396     0.7763 C.ar    
  17 C17           -2.9776    -4.0895     1.1089 C.ar    
  18 C18           -2.1396    -5.0204     1.7017 C.ar    
  19 C19           -0.8169    -4.7006     1.9629 C.ar    
  20 C20           -0.3274    -3.4548     1.6286 C.ar    
  21 F21           -2.6136    -6.2431     2.0263 F       
  22 C22            4.2624     6.1664     1.1532 C.ar    
  23 C23            5.3520     7.0039     1.0196 C.ar    
  24 C24            6.5075     6.7646     1.7502 C.ar    
  25 C25            6.5736     5.6835     2.6179 C.ar    
  26 C26            5.4867     4.8442     2.7626 C.ar    
  27 F27            7.5714     7.5864     1.6161 F       
  28 F28            7.7012     5.4548     3.3260 F       
  29 F29            5.2935     8.0576     0.1761 F       
  30 H30            2.6674     0.9506     0.8391 H       
  31 H31            2.3354     0.9508    -1.6279 H       
  32 H32            1.2605     2.3609    -1.4741 H       
  33 H33            4.1863     2.2669    -0.6084 H       
  34 H34            3.5740     3.0389    -2.0914 H       
  35 H35            3.9069     4.6642    -0.1941 H       
  36 H36            2.2216     4.5989    -0.7708 H       
  37 H37            0.5446     3.1461     0.8277 H       
  38 H38            1.3333     2.4346     2.2591 H       
  39 H39           -3.1516    -2.1146     0.3146 H       
  40 H40           -4.0079    -4.3428     0.9074 H       
  41 H41           -0.1671    -5.4290     2.4250 H       
  42 H42            0.7036    -3.2063     1.8325 H       
  43 H43            3.3639     6.3529     0.5837 H       
  44 H44            5.5389     4.0033     3.4383 H       
@<TRIPOS>BOND
   1    1   11 2
   2    1    2 1
   3    1   14 1
   4    2    3 1
   5    2    7 1
   6    2   30 1
   7    3    4 1
   8    3   31 1
   9    3   32 1
  10    4    5 1
  11    4   33 1
  12    4   34 1
  13    5    6 1
  14    5   35 1
  15    5   36 1
  16    6    7 1
  17    6    8 am
  18    7   37 1
  19    7   38 1
  20    8    9 1
  21    8   10 2
  22    9   22 ar
  23    9   26 ar
  24   11   12 1
  25   12   13 2
  26   12   15 1
  27   13   14 1
  28   15   16 ar
  29   15   20 ar
  30   16   17 ar
  31   16   39 1
  32   17   18 ar
  33   17   40 1
  34   18   19 ar
  35   18   21 1
  36   19   20 ar
  37   19   41 1
  38   20   42 1
  39   22   23 ar
  40   22   43 1
  41   23   24 ar
  42   23   29 1
  43   24   25 ar
  44   24   27 1
  45   25   26 ar
  46   25   28 1
  47   26   44 1

#	End of record

