#	Name: ASD00190036
#	Creating user name:	WinNT
#	Creation time:	15. 06. 2019 18:33

#	Modifying user name:	WinNT
#	Modification time:	15. 06. 2019 18:33

#	Program:	/corina/corina34_cracker 3.40 0067  02.08.2006

@<TRIPOS>MOLECULE
ASD00190036
  42   46    0    0    0
SMALL
NO_CHARGES


@<TRIPOS>ATOM
   1 C1            -0.0141     1.3575     0.0065 C.ar    
   2 C2             0.0051    -0.0052    -0.0086 C.ar    
   3 C3             1.2070    -0.7047    -0.0377 C.ar    
   4 C4             2.3992    -0.0413    -0.0520 C.ar    
   5 C5             2.4138     1.3571    -0.0376 C.ar    
   6 C6             1.1926     2.0734    -0.0079 C.ar    
   7 C7             3.6590     2.1125    -0.0513 C.ar    
   8 C8             3.5790     3.5086    -0.0348 C.ar    
   9 C9             2.3057     4.1210    -0.0061 C.ar    
  10 N10            1.1984     3.4146     0.0070 N.ar    
  11 N11            4.9901     1.8002    -0.0781 N.pl3   
  12 C12            5.6816     2.9727    -0.0776 C.2     
  13 N13            4.8505     3.9750    -0.0521 N.2     
  14 N14            2.2232     5.5040     0.0108 N.pl3   
  15 C15            0.9769     6.1312    -0.0808 C.ar    
  16 C16            0.7422     7.3157     0.6053 C.ar    
  17 C17           -0.4897     7.9339     0.5131 C.ar    
  18 C18           -1.4899     7.3743    -0.2615 C.ar    
  19 C19           -1.2592     6.1929    -0.9471 C.ar    
  20 C20           -0.0267     5.5736    -0.8627 C.ar    
  21 Cl21          -2.5168     5.4936    -1.9182 Cl      
  22 Cl22          -3.0371     8.1535    -0.3741 Cl      
  23 C23            7.1836     3.0928    -0.1023 C.3     
  24 C24            7.8316     3.0046     1.2896 C.3     
  25 C25            8.9381     2.1612     0.6344 C.3     
  26 C26            7.9017     1.7740    -0.4337 C.3     
  27 H27           -0.9562     1.8853     0.0250 H       
  28 H28           -0.9273    -0.5503     0.0026 H       
  29 H29            1.1964    -1.7846    -0.0489 H       
  30 H30            3.3271    -0.5934    -0.0739 H       
  31 H31            5.3710     0.9083    -0.0942 H       
  32 H32            3.0300     6.0371     0.0862 H       
  33 H33            1.5222     7.7530     1.2109 H       
  34 H34           -0.6722     8.8550     1.0466 H       
  35 H35            0.1533     4.6527    -1.3975 H       
  36 H36            7.5307     3.9409    -0.6925 H       
  37 H37            8.1815     3.9643     1.6699 H       
  38 H38            7.2340     2.4530     2.0153 H       
  39 H39            9.7660     2.7537     0.2450 H       
  40 H40            9.2681     1.3222     1.2470 H       
  41 H41            7.3233     0.8859    -0.1791 H       
  42 H42            8.3082     1.7402    -1.4445 H       
@<TRIPOS>BOND
   1    1    2 ar
   2    1    6 ar
   3    1   27 1
   4    2    3 ar
   5    2   28 1
   6    3    4 ar
   7    3   29 1
   8    4    5 ar
   9    4   30 1
  10    5    6 ar
  11    5    7 ar
  12    6   10 ar
  13    7    8 ar
  14    7   11 1
  15    8    9 ar
  16    8   13 1
  17    9   10 ar
  18    9   14 1
  19   11   12 1
  20   11   31 1
  21   12   13 2
  22   12   23 1
  23   14   15 1
  24   14   32 1
  25   15   16 ar
  26   15   20 ar
  27   16   17 ar
  28   16   33 1
  29   17   18 ar
  30   17   34 1
  31   18   19 ar
  32   18   22 1
  33   19   20 ar
  34   19   21 1
  35   20   35 1
  36   23   24 1
  37   23   26 1
  38   23   36 1
  39   24   25 1
  40   24   37 1
  41   24   38 1
  42   25   26 1
  43   25   39 1
  44   25   40 1
  45   26   41 1
  46   26   42 1

#	End of record

