#	Name: ASD01910006
#	Creating user name:	WinNT
#	Creation time:	15. 06. 2019 19:55

#	Modifying user name:	WinNT
#	Modification time:	15. 06. 2019 19:55

#	Program:	/corina/corina34_cracker 3.40 0067  02.08.2006

@<TRIPOS>MOLECULE
ASD01910006
  36   38    0    0    0
SMALL
NO_CHARGES


@<TRIPOS>ATOM
   1 C1            -0.3869     1.7172     0.1124 C.ar    
   2 C2            -0.5137     0.3666     0.3818 C.ar    
   3 N3             0.5329    -0.3593     0.7134 N.ar    
   4 C4             1.7490     0.1670     0.8034 C.ar    
   5 C5             1.9566     1.5186     0.5473 C.ar    
   6 C6             0.8690     2.3131     0.1941 C.ar    
   7 O7             1.0290     3.6360    -0.0642 O.3     
   8 C8             2.2788     4.1599     0.0402 C.ar    
   9 C9             3.2181     3.9710    -0.9684 C.ar    
  10 N10            4.4239     4.4969    -0.8293 N.ar    
  11 C11            4.7392     5.1911     0.2457 C.ar    
  12 N12            3.8774     5.3920     1.2224 N.ar    
  13 C13            2.6498     4.9036     1.1557 C.ar    
  14 C14           -1.8705    -0.2835     0.2949 C.3     
  15 C15            2.8948    -0.6930     1.1805 C.2     
  16 N16            2.7006    -2.0030     1.4303 N.am    
  17 O17            4.0098    -0.2172     1.2645 O.2     
  18 C18            3.7914    -2.8340     1.6817 C.ar    
  19 C19            3.5956    -4.2028     1.8228 C.ar    
  20 C20            4.6865    -5.0173     2.0717 C.ar    
  21 C21            5.9424    -4.4307     2.1712 C.ar    
  22 C22            6.0628    -3.0610     2.0196 C.ar    
  23 N23            5.0040    -2.3122     1.7781 N.ar    
  24 F24            7.0334    -5.1896     2.4137 F       
  25 H25           -1.2518     2.3025    -0.1627 H       
  26 H26            2.9460     1.9451     0.6217 H       
  27 H27            2.9668     3.4029    -1.8518 H       
  28 H28            5.7324     5.6071     0.3288 H       
  29 H29            1.9486     5.0724     1.9596 H       
  30 H30           -2.0319    -0.6536    -0.7176 H       
  31 H31           -1.9207    -1.1150     0.9979 H       
  32 H32           -2.6403     0.4478     0.5414 H       
  33 H33            1.8018    -2.3678     1.4352 H       
  34 H34            2.6051    -4.6252     1.7398 H       
  35 H35            4.5645    -6.0843     2.1863 H       
  36 H36            7.0363    -2.5995     2.0960 H       
@<TRIPOS>BOND
   1    1    2 ar
   2    1    6 ar
   3    1   25 1
   4    2    3 ar
   5    2   14 1
   6    3    4 ar
   7    4    5 ar
   8    4   15 1
   9    5    6 ar
  10    5   26 1
  11    6    7 1
  12    7    8 1
  13    8    9 ar
  14    8   13 ar
  15    9   10 ar
  16    9   27 1
  17   10   11 ar
  18   11   12 ar
  19   11   28 1
  20   12   13 ar
  21   13   29 1
  22   14   30 1
  23   14   31 1
  24   14   32 1
  25   15   16 am
  26   15   17 2
  27   16   18 1
  28   16   33 1
  29   18   19 ar
  30   18   23 ar
  31   19   20 ar
  32   19   34 1
  33   20   21 ar
  34   20   35 1
  35   21   22 ar
  36   21   24 1
  37   22   23 ar
  38   22   36 1

#	End of record

