#	Name: ASD06582006
#	Creating user name:	WinNT
#	Creation time:	15. 06. 2019 21:06

#	Modifying user name:	WinNT
#	Modification time:	15. 06. 2019 21:06

#	Program:	/corina/corina34_cracker 3.40 0067  02.08.2006

@<TRIPOS>MOLECULE
ASD06582006
  41   41    0    0    0
SMALL
NO_CHARGES


@<TRIPOS>ATOM
   1 C1             0.0616     1.1490     0.2896 C.ar    
   2 C2            -0.0680    -0.2439     0.2500 C.ar    
   3 N3            -1.2664    -0.7975     0.1174 N.ar    
   4 C4            -2.3442    -0.0285     0.0222 C.ar    
   5 C5            -2.2105     1.3680     0.0622 C.ar    
   6 N6            -1.0041     1.9155     0.2010 N.ar    
   7 Cl7            1.6324     1.8674     0.4633 Cl      
   8 N8             1.0567    -1.0459     0.3490 N.pl3   
   9 N9            -3.5959    -0.6021    -0.1167 N.pl3   
  10 C10           -3.4060     2.2289    -0.0433 C.2     
  11 N11           -3.2928     3.5557     0.1152 N.2     
  12 O12           -4.4952     1.7335    -0.2744 O.2     
  13 C13           -4.0628     4.1860     0.9882 C.2     
  14 N14           -4.8911     3.4744     1.8057 N.pl3   
  15 N15           -4.0279     5.5472     1.0704 N.pl3   
  16 C16            0.9225    -2.5041     0.3078 C.3     
  17 C17            2.3048    -3.1473     0.4359 C.3     
  18 C18            2.1647    -4.6703     0.3928 C.3     
  19 C19            3.5470    -5.3135     0.5210 C.3     
  20 C20            3.4068    -6.8364     0.4779 C.3     
  21 C21            4.7891    -7.4796     0.6060 C.3     
  22 H22            1.9333    -0.6421     0.4457 H       
  23 H23           -3.6797    -1.5618    -0.2299 H       
  24 H24           -4.3894    -0.0445    -0.1008 H       
  25 H25           -4.8618     2.5049     1.8007 H       
  26 H26           -5.5094     3.9379     2.3920 H       
  27 H27           -3.4390     6.0532     0.4890 H       
  28 H28           -4.5922     6.0091     1.7101 H       
  29 H29            0.2903    -2.8343     1.1320 H       
  30 H30            0.4701    -2.8007    -0.6385 H       
  31 H31            2.9370    -2.8172    -0.3884 H       
  32 H32            2.7572    -2.8507     1.3822 H       
  33 H33            1.5325    -5.0005     1.2171 H       
  34 H34            1.7122    -4.9669    -0.5535 H       
  35 H35            4.1792    -4.9833    -0.3033 H       
  36 H36            3.9994    -5.0169     1.4672 H       
  37 H37            2.7746    -7.1666     1.3021 H       
  38 H38            2.9544    -7.1330    -0.4684 H       
  39 H39            5.4213    -7.1495    -0.2183 H       
  40 H40            5.2416    -7.1830     1.5523 H       
  41 H41            4.6893    -8.5646     0.5753 H       
@<TRIPOS>BOND
   1    1    2 ar
   2    1    7 1
   3    1    6 ar
   4    2    3 ar
   5    2    8 1
   6    3    4 ar
   7    4    5 ar
   8    4    9 1
   9    5    6 ar
  10    5   10 1
  11    8   16 1
  12    8   22 1
  13    9   23 1
  14    9   24 1
  15   10   11 1
  16   10   12 2
  17   11   13 2
  18   13   14 1
  19   13   15 1
  20   14   25 1
  21   14   26 1
  22   15   27 1
  23   15   28 1
  24   16   17 1
  25   16   29 1
  26   16   30 1
  27   17   18 1
  28   17   31 1
  29   17   32 1
  30   18   19 1
  31   18   33 1
  32   18   34 1
  33   19   20 1
  34   19   35 1
  35   19   36 1
  36   20   21 1
  37   20   37 1
  38   20   38 1
  39   21   39 1
  40   21   40 1
  41   21   41 1

#	End of record

