#	Name: ASD01812322
#	Creating user name:	WinNT
#	Creation time:	15. 06. 2019 19:28

#	Modifying user name:	WinNT
#	Modification time:	15. 06. 2019 19:28

#	Program:	/corina/corina34_cracker 3.40 0067  02.08.2006

@<TRIPOS>MOLECULE
ASD01812322
  55   58    0    0    0
SMALL
NO_CHARGES


@<TRIPOS>ATOM
   1 C1            -0.0168     1.3889     0.0097 C.ar    
   2 C2             0.0021    -0.0041     0.0020 C.ar    
   3 C3             1.1794    -0.6886    -0.0125 C.ar    
   4 C4             2.3934     0.0157    -0.0203 C.ar    
   5 C5             2.3803     1.4351    -0.0131 C.ar    
   6 C6             1.1408     2.1077     0.0025 C.ar    
   7 C7             3.6293    -0.6585    -0.0347 C.ar    
   8 C8             4.7719     0.0878    -0.0413 C.ar    
   9 C9             4.6903     1.4886    -0.0336 C.ar    
  10 N10            3.5280     2.1114    -0.0200 N.ar    
  11 C11            5.9395     2.2867    -0.0404 C.2     
  12 O12            7.0180     1.7271    -0.0525 O.2     
  13 N13            5.8790     3.6331    -0.0332 N.am    
  14 C14            7.1135     4.4219    -0.0399 C.3     
  15 C15            3.6889    -2.1643    -0.0422 C.3     
  16 C16            3.5721    -2.6646    -1.4589 C.2     
  17 C17            6.8462     5.7972     0.5793 C.3     
  18 C18            8.1203     6.6418     0.4964 C.3     
  19 O19            8.5306     6.7501    -0.8682 O.3     
  20 C20            8.8398     5.4989    -1.4854 C.3     
  21 C21            7.5946     4.6083    -1.4822 C.3     
  22 C22            4.7173    -2.9564    -2.2214 C.2     
  23 C23            4.5840    -3.4017    -3.4842 C.2     
  24 N24            3.4793    -3.5684    -4.0135 N.3     
  25 C25            2.2846    -3.3076    -3.3411 C.2     
  26 C26            2.3153    -2.8595    -2.0570 C.2     
  27 O27            6.4662     5.6391     1.9477 O.3     
  28 O28            3.4660    -2.7578    -5.2313 O.3     
  29 F29            1.1014     3.4581     0.0092 F       
  30 O30            1.0988    -3.5054    -3.9628 O.3     
  31 C31            1.1437    -3.9831    -5.3088 C.3     
  32 H32           -0.9642     1.9074     0.0170 H       
  33 H33           -0.9303    -0.5490     0.0080 H       
  34 H34            1.1789    -1.7686    -0.0176 H       
  35 H35            5.7362    -0.3984    -0.0520 H       
  36 H36            5.0180     4.0798    -0.0236 H       
  37 H37            7.8798     3.9047     0.5375 H       
  38 H38            4.6379    -2.4924     0.3819 H       
  39 H39            2.8676    -2.5634     0.5529 H       
  40 H40            6.0442     6.2932     0.0326 H       
  41 H41            7.9238     7.6364     0.8969 H       
  42 H42            8.9105     6.1656     1.0769 H       
  43 H43            9.1616     5.6700    -2.5127 H       
  44 H44            9.6394     5.0077    -0.9309 H       
  45 H45            7.8400     3.6375    -1.9127 H       
  46 H46            6.8077     5.0803    -2.0706 H       
  47 H47            5.7005    -2.8231    -1.7948 H       
  48 H48            5.4738    -3.6210    -4.0557 H       
  49 H49            3.4414    -4.5307    -4.3144 H       
  50 H50            1.4031    -2.6516    -1.5174 H       
  51 H51            6.2814     6.4717     2.4034 H       
  52 H52            4.1530    -2.9951    -5.8692 H       
  53 H53            1.6845    -3.2690    -5.9299 H       
  54 H54            1.6528    -4.9466    -5.3356 H       
  55 H55            0.1281    -4.0981    -5.6876 H       
@<TRIPOS>BOND
   1    1    2 ar
   2    1    6 ar
   3    1   32 1
   4    2    3 ar
   5    2   33 1
   6    3    4 ar
   7    3   34 1
   8    4    5 ar
   9    4    7 ar
  10    5    6 ar
  11    5   10 ar
  12    6   29 1
  13    7    8 ar
  14    7   15 1
  15    8    9 ar
  16    8   35 1
  17    9   10 ar
  18    9   11 1
  19   11   12 2
  20   11   13 am
  21   13   14 1
  22   13   36 1
  23   14   17 1
  24   14   21 1
  25   14   37 1
  26   15   16 1
  27   15   38 1
  28   15   39 1
  29   16   22 2
  30   16   26 1
  31   17   18 1
  32   17   27 1
  33   17   40 1
  34   18   19 1
  35   18   41 1
  36   18   42 1
  37   19   20 1
  38   20   21 1
  39   20   43 1
  40   20   44 1
  41   21   45 1
  42   21   46 1
  43   22   23 1
  44   22   47 1
  45   23   24 2
  46   23   48 1
  47   24   25 1
  48   24   28 1
  49   24   49 1
  50   25   26 2
  51   25   30 1
  52   26   50 1
  53   27   51 1
  54   28   52 1
  55   30   31 1
  56   31   53 1
  57   31   54 1
  58   31   55 1

#	End of record

