#	Name: ASD02770038
#	Creating user name:	WinNT
#	Creation time:	15. 06. 2019 20:26

#	Modifying user name:	WinNT
#	Modification time:	15. 06. 2019 20:26

#	Program:	/corina/corina34_cracker 3.40 0067  02.08.2006

@<TRIPOS>MOLECULE
ASD02770038
  37   38    0    0    0
SMALL
NO_CHARGES


@<TRIPOS>ATOM
   1 C1             0.2094     1.3254     0.9982 C.2     
   2 C2             0.1100    -0.0645     0.5142 C.ar    
   3 C3             1.2159    -0.6825    -0.0881 C.ar    
   4 C4             1.1108    -1.9922    -0.5397 C.ar    
   5 C5            -0.0781    -2.6806    -0.3953 C.ar    
   6 C6            -1.1726    -2.0724     0.1994 C.ar    
   7 C7            -1.0840    -0.7746     0.6583 C.ar    
   8 O8             1.2778     1.9052     0.9667 O.2     
   9 N9            -0.8851     1.9546     1.4701 N.am    
  10 C10           -0.7863     3.3349     1.9508 C.3     
  11 C11           -2.1607     3.8083     2.4281 C.3     
  12 O12           -2.5609     3.0400     3.5646 O.3     
  13 N13            2.4136     0.0137    -0.2330 N.am    
  14 C14            3.5837    -0.5916     0.0519 C.2     
  15 C15            4.8575     0.1204    -0.1742 C.ar    
  16 C16            6.0728    -0.5046     0.1202 C.ar    
  17 C17            7.2597     0.1668    -0.0941 C.ar    
  18 C18            7.2474     1.4561    -0.5990 C.ar    
  19 C19            6.0459     2.0803    -0.8921 C.ar    
  20 C20            4.8535     1.4186    -0.6886 C.ar    
  21 O21            3.5903    -1.7236     0.4950 O.2     
  22 Cl22           8.7442     2.2943    -0.8654 Cl      
  23 Cl23           6.0892    -2.1205     0.7543 Cl      
  24 Cl24          -2.6599    -2.9507     0.3737 Cl      
  25 Cl25           2.4746    -2.7640    -1.2867 Cl      
  26 H26           -0.1554    -3.6984    -0.7482 H       
  27 H27           -1.9384    -0.3067     1.1247 H       
  28 H28           -1.7382     1.4934     1.4915 H       
  29 H29           -0.0784     3.3818     2.7783 H       
  30 H30           -0.4417     3.9779     1.1409 H       
  31 H31           -2.1071     4.8619     2.7024 H       
  32 H32           -2.8883     3.6780     1.6270 H       
  33 H33           -3.4253     3.2863     3.9213 H       
  34 H34            2.4056     0.9341    -0.5390 H       
  35 H35            8.1997    -0.3142     0.1327 H       
  36 H36            6.0433     3.0863    -1.2850 H       
  37 H37            3.9181     1.9051    -0.9222 H       
@<TRIPOS>BOND
   1    1    2 1
   2    1    8 2
   3    1    9 am
   4    2    3 ar
   5    2    7 ar
   6    3    4 ar
   7    3   13 1
   8    4    5 ar
   9    4   25 1
  10    5    6 ar
  11    5   26 1
  12    6    7 ar
  13    6   24 1
  14    7   27 1
  15    9   10 1
  16    9   28 1
  17   10   11 1
  18   10   29 1
  19   10   30 1
  20   11   12 1
  21   11   31 1
  22   11   32 1
  23   12   33 1
  24   13   14 am
  25   13   34 1
  26   14   15 1
  27   14   21 2
  28   15   16 ar
  29   15   20 ar
  30   16   17 ar
  31   16   23 1
  32   17   18 ar
  33   17   35 1
  34   18   19 ar
  35   18   22 1
  36   19   20 ar
  37   19   36 1
  38   20   37 1

#	End of record

