#	Name: ASD03082186
#	Creating user name:	WinNT
#	Creation time:	15. 06. 2019 20:27

#	Modifying user name:	WinNT
#	Modification time:	15. 06. 2019 20:27

#	Program:	/corina/corina34_cracker 3.40 0067  02.08.2006

@<TRIPOS>MOLECULE
ASD03082186
  40   42    0    0    0
SMALL
NO_CHARGES


@<TRIPOS>ATOM
   1 C1             1.1922    -0.3231     0.7525 C.ar    
   2 C2             0.0337     0.2156     0.2074 C.ar    
   3 C3             0.0209     1.5371    -0.2216 C.ar    
   4 C4             1.1589     2.3103    -0.1049 C.ar    
   5 C5             2.3109     1.7705     0.4379 C.ar    
   6 C6             2.3271     0.4560     0.8662 C.ar    
   7 N7            -1.1161    -0.5698     0.0904 N.pl3   
   8 H8            -1.0378    -1.5271    -0.0454 H       
   9 C9            -2.3777     0.0233     0.1689 C.2     
  10 N10           -3.5409    -0.6021    -0.0227 N.2     
  11 N11           -2.6106     1.2847     0.4486 N.2     
  12 N12           -4.0038     1.4590     0.4251 N.pl3   
  13 C13           -4.5343     0.2517     0.1267 C.2     
  14 C14           -4.7372     2.7017     0.6784 C.3     
  15 C15           -5.9744    -0.0564    -0.0094 C.ar    
  16 C16           -6.8977     0.9636    -0.2724 C.ar    
  17 C17           -8.2317     0.6264    -0.3915 C.ar    
  18 C18           -8.6119    -0.7031    -0.2478 C.ar    
  19 N19           -7.7150    -1.6442     0.0004 N.ar    
  20 C20           -6.4323    -1.3672     0.1163 C.ar    
  21 O21           -4.8993     3.4175    -0.5478 O.3     
  22 O22           -9.9203    -1.0404    -0.3632 O.3     
  23 C23          -10.2505    -2.4218    -0.2058 C.3     
  24 C24            1.1460     3.7437    -0.5700 C.3     
  25 F25            0.7565     4.5733     0.4870 F       
  26 F26            2.4270     4.1061    -0.9997 F       
  27 F27            0.2423     3.8822    -1.6289 F       
  28 H28            1.2043    -1.3486     1.0910 H       
  29 H29           -0.8781     1.9590    -0.6462 H       
  30 H30            3.1998     2.3774     0.5277 H       
  31 H31            3.2283     0.0376     1.2896 H       
  32 H32           -5.7170     2.4669     1.0943 H       
  33 H33           -4.1795     3.3150     1.3861 H       
  34 H34           -6.5744     1.9886    -0.3790 H       
  35 H35           -8.9713     1.3871    -0.5936 H       
  36 H36           -5.7297    -2.1620     0.3188 H       
  37 H37           -5.3776     4.2528    -0.4553 H       
  38 H38           -9.7290    -3.0085    -0.9621 H       
  39 H39           -9.9480    -2.7569     0.7863 H       
  40 H40          -11.3262    -2.5538    -0.3217 H       
@<TRIPOS>BOND
   1    1    2 ar
   2    1    6 ar
   3    1   28 1
   4    2    3 ar
   5    2    7 1
   6    3    4 ar
   7    3   29 1
   8    4    5 ar
   9    4   24 1
  10    5    6 ar
  11    5   30 1
  12    6   31 1
  13    7    8 1
  14    7    9 1
  15    9   10 1
  16    9   11 2
  17   10   13 2
  18   11   12 1
  19   12   13 1
  20   12   14 1
  21   13   15 1
  22   14   21 1
  23   14   32 1
  24   14   33 1
  25   15   16 ar
  26   15   20 ar
  27   16   17 ar
  28   16   34 1
  29   17   18 ar
  30   17   35 1
  31   18   19 ar
  32   18   22 1
  33   19   20 ar
  34   20   36 1
  35   21   37 1
  36   22   23 1
  37   23   38 1
  38   23   39 1
  39   23   40 1
  40   24   25 1
  41   24   26 1
  42   24   27 1

#	End of record

