#	Name: ASD03330060
#	Creating user name:	WinNT
#	Creation time:	15. 06. 2019 20:36

#	Modifying user name:	WinNT
#	Modification time:	15. 06. 2019 20:36

#	Program:	/corina/corina34_cracker 3.40 0067  02.08.2006

@<TRIPOS>MOLECULE
ASD03330060
  76   80    0    0    0
SMALL
NO_CHARGES


@<TRIPOS>ATOM
   1 S1             0.4332     0.3608    -0.9897 S.3     
   2 C2             0.2385    -0.6768     0.4155 C.2     
   3 C3             2.0275     0.8658    -0.4479 C.2     
   4 C4             2.3315     0.2419     0.7410 C.2     
   5 C5             1.3451    -0.6021     1.2072 C.2     
   6 C6             3.6102     0.4583     1.4589 C.ar    
   7 C7             3.9034     1.7082     2.0059 C.ar    
   8 C8             4.5216    -0.5874     1.5950 C.ar    
   9 C9             5.7106    -0.3808     2.2647 C.ar    
  10 C10            5.9993     0.8622     2.8011 C.ar    
  11 C11            5.0959     1.9036     2.6739 C.ar    
  12 Cl12           7.4969     1.1145     3.6421 Cl      
  13 C13            2.9063     1.8131    -1.1595 C.ar    
  14 C14            4.2507     1.4969    -1.3730 C.ar    
  15 C15            2.3956     3.0270    -1.6270 C.ar    
  16 C16            3.2201     3.9089    -2.2911 C.ar    
  17 C17            4.5572     3.5929    -2.4961 C.ar    
  18 C18            5.0678     2.3849    -2.0381 C.ar    
  19 C19           -0.9404    -1.5005     0.6948 C.2     
  20 O20           -0.8043    -2.6518     1.0658 O.2     
  21 O21            5.3664     4.4653    -3.1513 O.3     
  22 N22           -2.1755    -0.9836     0.5410 N.am    
  23 C23           -3.3652    -1.7678     0.8993 C.3     
  24 C24           -2.3576     0.3771     0.0176 C.3     
  25 C25           -3.2296     1.1695     0.9967 C.3     
  26 C26           -4.5356     0.4097     1.2403 C.3     
  27 C27           -4.2238    -0.9470     1.8667 C.3     
  28 N28           -5.3885     1.1826     2.1531 N.3     
  29 C29           -6.6377     0.4659     2.4397 C.3     
  30 C30           -7.4327     1.2285     3.5019 C.3     
  31 C31           -7.7376     2.6388     2.9895 C.3     
  32 C32           -6.4222     3.3465     2.6527 C.3     
  33 C33           -5.6565     2.5224     1.6151 C.3     
  34 C34           -5.2531     0.2116    -0.0700 C.2     
  35 N35           -5.3826     1.2414    -0.9298 N.am    
  36 O36           -5.7141    -0.8745    -0.3508 O.2     
  37 F37           -8.5321     2.5573     1.8409 F       
  38 F38           -8.4161     3.3591     3.9785 F       
  39 Cl39           2.7714     3.0147     1.8464 Cl      
  40 C40            6.7305     4.0776    -3.3278 C.3     
  41 C41            7.4802     5.1784    -4.0808 C.3     
  42 C42            8.9406     4.7633    -4.2698 C.3     
  43 O43            9.6408     5.7915    -4.9732 O.3     
  44 H44            1.4422    -1.1599     2.1269 H       
  45 H45            4.2976    -1.5578     1.1774 H       
  46 H46            6.4170    -1.1908     2.3708 H       
  47 H47            5.3260     2.8715     3.0942 H       
  48 H48            4.6486     0.5582    -1.0170 H       
  49 H49            1.3561     3.2733    -1.4684 H       
  50 H50            2.8262     4.8471    -2.6531 H       
  51 H51            6.1081     2.1435    -2.1994 H       
  52 H52           -3.9398    -1.9914     0.0004 H       
  53 H53           -3.0592    -2.6968     1.3804 H       
  54 H54           -1.3871     0.8630    -0.0829 H       
  55 H55           -2.8484     0.3320    -0.9547 H       
  56 H56           -2.6982     1.2914     1.9405 H       
  57 H57           -3.4522     2.1495     0.5747 H       
  58 H58           -5.1543    -1.4798     2.0624 H       
  59 H59           -3.6843    -0.8004     2.8024 H       
  60 H60           -7.2300     0.3896     1.5279 H       
  61 H61           -6.4066    -0.5339     2.8073 H       
  62 H62           -8.3671     0.7045     3.7031 H       
  63 H63           -6.8465     1.2932     4.4186 H       
  64 H64           -6.6346     4.3357     2.2470 H       
  65 H65           -5.8201     3.4445     3.5559 H       
  66 H66           -4.7127     3.0163     1.3836 H       
  67 H67           -6.2534     2.4365     0.7071 H       
  68 H68           -4.9461     2.0872    -0.7428 H       
  69 H69           -5.9123     1.1367    -1.7356 H       
  70 H70            7.1936     3.9240    -2.3531 H       
  71 H71            6.7737     3.1513    -3.9006 H       
  72 H72            7.0171     5.3320    -5.0555 H       
  73 H73            7.4369     6.1047    -3.5080 H       
  74 H74            9.4037     4.6097    -3.2951 H       
  75 H75            8.9838     3.8370    -4.8426 H       
  76 H76           10.5749     5.5955    -5.1288 H       
@<TRIPOS>BOND
   1    1    2 1
   2    1    3 1
   3    2   19 1
   4    2    5 2
   5    3    4 2
   6    3   13 1
   7    4    5 1
   8    4    6 1
   9    5   44 1
  10    6    7 ar
  11    6    8 ar
  12    7   39 1
  13    7   11 ar
  14    8    9 ar
  15    8   45 1
  16    9   10 ar
  17    9   46 1
  18   10   11 ar
  19   10   12 1
  20   11   47 1
  21   13   14 ar
  22   13   15 ar
  23   14   18 ar
  24   14   48 1
  25   15   16 ar
  26   15   49 1
  27   16   17 ar
  28   16   50 1
  29   17   18 ar
  30   17   21 1
  31   18   51 1
  32   19   20 2
  33   19   22 am
  34   21   40 1
  35   22   23 1
  36   22   24 1
  37   23   27 1
  38   23   52 1
  39   23   53 1
  40   24   25 1
  41   24   54 1
  42   24   55 1
  43   25   26 1
  44   25   56 1
  45   25   57 1
  46   26   27 1
  47   26   28 1
  48   26   34 1
  49   27   58 1
  50   27   59 1
  51   28   29 1
  52   28   33 1
  53   29   30 1
  54   29   60 1
  55   29   61 1
  56   30   31 1
  57   30   62 1
  58   30   63 1
  59   31   32 1
  60   31   37 1
  61   31   38 1
  62   32   33 1
  63   32   64 1
  64   32   65 1
  65   33   66 1
  66   33   67 1
  67   34   35 am
  68   34   36 2
  69   35   68 1
  70   35   69 1
  71   40   41 1
  72   40   70 1
  73   40   71 1
  74   41   42 1
  75   41   72 1
  76   41   73 1
  77   42   43 1
  78   42   74 1
  79   42   75 1
  80   43   76 1

#	End of record

