#	Name: ASD01913406
#	Creating user name:	WinNT
#	Creation time:	15. 06. 2019 20:01

#	Modifying user name:	WinNT
#	Modification time:	15. 06. 2019 20:01

#	Program:	/corina/corina34_cracker 3.40 0067  02.08.2006

@<TRIPOS>MOLECULE
ASD01913406
  38   40    0    0    0
SMALL
NO_CHARGES


@<TRIPOS>ATOM
   1 C1            -2.2194    -0.7498    -2.1872 C.ar    
   2 C2            -1.7323    -0.0560    -1.0820 C.ar    
   3 C3            -1.8026     1.3351    -1.0935 C.ar    
   4 N4            -2.3256     1.9422    -2.1457 N.ar    
   5 C5            -2.7759     1.2492    -3.1724 C.ar    
   6 N6            -2.7274    -0.0676    -3.2000 N.ar    
   7 C7            -1.2371    -2.1333     0.0576 C.ar    
   8 C8            -0.0615    -2.8725     0.0006 C.ar    
   9 C9            -0.1050    -4.2544     0.0528 C.ar    
  10 C10           -1.3167    -4.9078     0.1623 C.ar    
  11 C11           -2.5029    -4.1735     0.2208 C.ar    
  12 C12           -2.4588    -2.7805     0.1677 C.ar    
  13 C13           -3.8013    -4.8703     0.3375 C.2     
  14 N14           -3.8415    -6.2165     0.3878 N.am    
  15 C15           -5.0615    -6.8713     0.4975 C.2     
  16 O16           -4.8328    -4.2291     0.3882 O.2     
  17 N17           -1.1876    -0.7376     0.0099 N.pl3   
  18 Cl18           1.3683    -5.1698    -0.0202 Cl      
  19 C19           -0.5650     0.0112     1.1043 C.3     
  20 S20           -6.5842    -6.0980     0.5778 S.3     
  21 C21           -7.3849    -7.6631     0.6902 C.2     
  22 C22           -6.4465    -8.6114     0.6575 C.2     
  23 N23           -5.2118    -8.1580     0.5483 N.2     
  24 C24           -6.7708   -10.0811     0.7336 C.3     
  25 H25           -2.1788    -1.8286    -2.2185 H       
  26 H26           -1.4359     1.9094    -0.2556 H       
  27 H27           -3.1971     1.7759    -4.0160 H       
  28 H28            0.8888    -2.3667    -0.0851 H       
  29 H29           -1.3469    -5.9866     0.2025 H       
  30 H30           -3.3732    -2.2075     0.2128 H       
  31 H31           -3.0184    -6.7282     0.3473 H       
  32 H32           -1.3167     0.2455     1.8581 H       
  33 H33            0.2246    -0.5912     1.5536 H       
  34 H34           -0.1395     0.9364     0.7157 H       
  35 H35           -8.4493    -7.8266     0.7720 H       
  36 H36           -6.9220   -10.4724    -0.2725 H       
  37 H37           -5.9456   -10.6111     1.2093 H       
  38 H38           -7.6793   -10.2229     1.3189 H       
@<TRIPOS>BOND
   1    1    2 ar
   2    1    6 ar
   3    1   25 1
   4    2    3 ar
   5    2   17 1
   6    3    4 ar
   7    3   26 1
   8    4    5 ar
   9    5    6 ar
  10    5   27 1
  11    7    8 ar
  12    7   12 ar
  13    7   17 1
  14    8    9 ar
  15    8   28 1
  16    9   10 ar
  17    9   18 1
  18   10   11 ar
  19   10   29 1
  20   11   12 ar
  21   11   13 1
  22   12   30 1
  23   13   14 am
  24   13   16 2
  25   14   15 1
  26   14   31 1
  27   15   20 1
  28   15   23 2
  29   17   19 1
  30   19   32 1
  31   19   33 1
  32   19   34 1
  33   20   21 1
  34   21   22 2
  35   21   35 1
  36   22   23 1
  37   22   24 1
  38   24   36 1
  39   24   37 1
  40   24   38 1

#	End of record

