#	Name: ASD09610021
#	Creating user name:	WinNT
#	Creation time:	15. 06. 2019 21:22

#	Modifying user name:	WinNT
#	Modification time:	15. 06. 2019 21:22

#	Program:	/corina/corina34_cracker 3.40 0067  02.08.2006

@<TRIPOS>MOLECULE
ASD09610021
  54   56    0    0    0
SMALL
NO_CHARGES


@<TRIPOS>ATOM
   1 C1             0.5552     2.0384    -0.6065 C.2     
   2 C2             0.3011     0.6164    -0.3557 C.2     
   3 C3             1.3407    -0.2430    -0.2091 C.2     
   4 O4             1.6979     2.4476    -0.6831 O.2     
   5 O5            -0.4782     2.8917    -0.7578 O.3     
   6 O6             1.1072    -1.5495     0.0212 O.3     
   7 C7             2.2671    -2.4106     0.1677 C.3     
   8 C8            -1.0924     0.1173    -0.2623 C.ar    
   9 C9            -1.6477    -0.6084    -1.3151 C.ar    
  10 C10           -2.9447    -1.0702    -1.2227 C.ar    
  11 C11           -3.6937    -0.8142    -0.0880 C.ar    
  12 C12           -3.1482    -0.0943     0.9594 C.ar    
  13 C13           -1.8497     0.3672     0.8806 C.ar    
  14 C14           -0.8332    -0.8876    -2.5519 C.3     
  15 S15            0.0594    -2.4488    -2.3467 S.3     
  16 C16            0.9025    -2.5246    -3.8921 C.2     
  17 N17            0.7443    -1.5727    -4.7680 N.2     
  18 C18            1.4892    -1.5700    -5.9203 C.ar    
  19 C19            0.8554    -1.5306    -7.1629 C.ar    
  20 C20            1.6077    -1.5276    -8.3189 C.ar    
  21 C21            2.9934    -1.5637    -8.2475 C.ar    
  22 C22            3.6276    -1.6034    -7.0135 C.ar    
  23 C23            2.8826    -1.6009    -5.8527 C.ar    
  24 O24            3.7314    -1.5605    -9.3892 O.3     
  25 C25            5.1524    -1.5990    -9.2433 C.3     
  26 C26            1.8065    -3.6901    -4.2009 C.3     
  27 C27            1.4030    -5.0611    -3.6547 C.3     
  28 C28            1.2737    -4.7652    -5.1502 C.3     
  29 C29           -0.1521     4.2851    -1.0034 C.3     
  30 H30            2.3555     0.1204    -0.2772 H       
  31 H31            1.9392    -3.4342     0.3488 H       
  32 H32            2.8628    -2.3759    -0.7445 H       
  33 H33            2.8701    -2.0681     1.0086 H       
  34 H34           -3.3760    -1.6323    -2.0378 H       
  35 H35           -4.7085    -1.1776    -0.0200 H       
  36 H36           -3.7376     0.1029     1.8426 H       
  37 H37           -1.4229     0.9248     1.7011 H       
  38 H38           -1.4955    -0.9584    -3.4147 H       
  39 H39           -0.1194    -0.0787    -2.7072 H       
  40 H40           -0.2228    -1.5028    -7.2194 H       
  41 H41            1.1179    -1.4974    -9.2810 H       
  42 H42            4.7060    -1.6318    -6.9621 H       
  43 H43            3.3770    -1.6269    -4.8929 H       
  44 H44            5.4833    -0.7275    -8.6783 H       
  45 H45            5.4387    -2.5066    -8.7120 H       
  46 H46            5.6191    -1.5920   -10.2283 H       
  47 H47            2.8709    -3.4601    -4.2472 H       
  48 H48            2.2021    -5.7333    -3.3419 H       
  49 H49            0.4838    -5.1201    -3.0719 H       
  50 H50            0.2693    -4.6295    -5.5514 H       
  51 H51            1.9876    -5.2427    -5.8213 H       
  52 H52            0.4297     4.6748    -0.1681 H       
  53 H53            0.4308     4.3655    -1.9210 H       
  54 H54           -1.0718     4.8610    -1.1057 H       
@<TRIPOS>BOND
   1    1    2 1
   2    1    4 2
   3    1    5 1
   4    2    3 2
   5    2    8 1
   6    3    6 1
   7    3   30 1
   8    5   29 1
   9    6    7 1
  10    7   31 1
  11    7   32 1
  12    7   33 1
  13    8    9 ar
  14    8   13 ar
  15    9   10 ar
  16    9   14 1
  17   10   11 ar
  18   10   34 1
  19   11   12 ar
  20   11   35 1
  21   12   13 ar
  22   12   36 1
  23   13   37 1
  24   14   15 1
  25   14   38 1
  26   14   39 1
  27   15   16 1
  28   16   17 2
  29   16   26 1
  30   17   18 1
  31   18   19 ar
  32   18   23 ar
  33   19   20 ar
  34   19   40 1
  35   20   21 ar
  36   20   41 1
  37   21   22 ar
  38   21   24 1
  39   22   23 ar
  40   22   42 1
  41   23   43 1
  42   24   25 1
  43   25   44 1
  44   25   45 1
  45   25   46 1
  46   26   27 1
  47   26   28 1
  48   26   47 1
  49   27   28 1
  50   27   48 1
  51   27   49 1
  52   28   50 1
  53   28   51 1
  54   29   52 1
  55   29   53 1
  56   29   54 1

#	End of record

