#	Name: ASD01816358
#	Creating user name:	WinNT
#	Creation time:	15. 06. 2019 19:35

#	Modifying user name:	WinNT
#	Modification time:	15. 06. 2019 19:35

#	Program:	/corina/corina34_cracker 3.40 0067  02.08.2006

@<TRIPOS>MOLECULE
ASD01816358
  49   54    0    0    0
SMALL
NO_CHARGES


@<TRIPOS>ATOM
   1 C1            -0.0167     1.3813     0.0096 C.ar    
   2 C2             0.0021    -0.0041     0.0020 C.ar    
   3 C3             1.1984    -0.6909    -0.0126 C.ar    
   4 C4             2.4015     0.0060    -0.0198 C.ar    
   5 C5             2.3790     1.4106    -0.0126 C.ar    
   6 C6             1.1663     2.0916     0.0022 C.ar    
   7 N7             3.6053    -0.6771    -0.0336 N.pl3   
   8 C8             4.7971    -0.0585    -0.0406 C.2     
   9 C9             4.9000     1.3103    -0.0347 C.2     
  10 C10            3.6670     2.1302    -0.0205 C.2     
  11 C11            5.9971     2.2730    -0.0397 C.2     
  12 N12            5.4245     3.4961    -0.0293 N.am    
  13 N13            4.0322     3.3798    -0.0180 N.2     
  14 O14            7.1913     2.0230    -0.0506 O.2     
  15 C15            3.5779    -2.1419    -0.0402 C.3     
  16 C16            3.5561    -2.6375    -1.4632 C.ar    
  17 C17            4.7442    -2.8867    -2.1253 C.ar    
  18 C18            4.7274    -3.3406    -3.4297 C.ar    
  19 C19            3.5160    -3.5469    -4.0759 C.ar    
  20 C20            2.3248    -3.2962    -3.4083 C.ar    
  21 C21            2.3479    -2.8474    -2.1023 C.ar    
  22 N22            3.4957    -4.0070    -5.3999 N.pl3   
  23 C23            2.3912    -4.2482    -6.1418 C.2     
  24 C24            2.7983    -4.6776    -7.3588 C.2     
  25 C25            4.1973    -4.7000    -7.3619 C.2     
  26 N26            4.6162    -4.2926    -6.1908 N.2     
  27 C27            6.1240     4.7042    -0.0292 C.ar    
  28 C28            5.4315     5.9136    -0.0121 C.ar    
  29 N29            7.4483     4.7057    -0.0398 N.ar    
  30 N30            8.1291     5.7938    -0.0397 N.ar    
  31 C31            7.5566     6.9827    -0.0290 C.ar    
  32 C32            6.1717     7.0856    -0.0123 C.ar    
  33 Cl33           8.5341     8.4173    -0.0294 Cl      
  34 H34           -0.9602     1.9068     0.0169 H       
  35 H35           -0.9289    -0.5516     0.0079 H       
  36 H36            1.2004    -1.7709    -0.0181 H       
  37 H37            1.1506     3.1715     0.0077 H       
  38 H38            5.6983    -0.6536    -0.0510 H       
  39 H39            4.4654    -2.5242     0.4641 H       
  40 H40            2.6858    -2.4909     0.4798 H       
  41 H41            5.6862    -2.7261    -1.6221 H       
  42 H42            5.6557    -3.5344    -3.9466 H       
  43 H43            1.3809    -3.4554    -3.9086 H       
  44 H44            1.4216    -2.6522    -1.5824 H       
  45 H45            1.3679    -4.1215    -5.8206 H       
  46 H46            2.1567    -4.9543    -8.1823 H       
  47 H47            4.8238    -4.9977    -8.1897 H       
  48 H48            4.3518     5.9370     0.0005 H       
  49 H49            5.6859     8.0502    -0.0033 H       
@<TRIPOS>BOND
   1    1    2 ar
   2    1    6 ar
   3    1   34 1
   4    2    3 ar
   5    2   35 1
   6    3    4 ar
   7    3   36 1
   8    4    5 ar
   9    4    7 1
  10    5    6 ar
  11    5   10 1
  12    6   37 1
  13    7    8 1
  14    7   15 1
  15    8    9 2
  16    8   38 1
  17    9   10 1
  18    9   11 1
  19   10   13 2
  20   11   12 am
  21   11   14 2
  22   12   13 1
  23   12   27 1
  24   15   16 1
  25   15   39 1
  26   15   40 1
  27   16   17 ar
  28   16   21 ar
  29   17   18 ar
  30   17   41 1
  31   18   19 ar
  32   18   42 1
  33   19   20 ar
  34   19   22 1
  35   20   21 ar
  36   20   43 1
  37   21   44 1
  38   22   23 1
  39   22   26 1
  40   23   24 2
  41   23   45 1
  42   24   25 1
  43   24   46 1
  44   25   26 2
  45   25   47 1
  46   27   29 ar
  47   27   28 ar
  48   28   32 ar
  49   28   48 1
  50   29   30 ar
  51   30   31 ar
  52   31   32 ar
  53   31   33 1
  54   32   49 1

#	End of record

