#	Name: ASD04910161
#	Creating user name:	WinNT
#	Creation time:	15. 06. 2019 20:55

#	Modifying user name:	WinNT
#	Modification time:	15. 06. 2019 20:55

#	Program:	/corina/corina34_cracker 3.40 0067  02.08.2006

@<TRIPOS>MOLECULE
ASD04910161
  44   45    0    0    0
SMALL
NO_CHARGES


@<TRIPOS>ATOM
   1 C1            -0.1631     1.4793     0.1051 C.2     
   2 C2            -0.1038     0.0037     0.0683 C.ar    
   3 C3             1.1301    -0.6473     0.0101 C.ar    
   4 C4             1.1782    -2.0255    -0.0235 C.ar    
   5 C5             0.0074    -2.7626    -0.0001 C.ar    
   6 C6            -1.2187    -2.1239     0.0571 C.ar    
   7 C7            -1.2811    -0.7464     0.0975 C.ar    
   8 O8             0.8630     2.1291     0.0847 O.2     
   9 O9            -1.3553     2.1044     0.1556 O.3     
  10 C10            0.0679    -4.2679    -0.0375 C.3     
  11 C11           -0.1124    -4.8209     1.3776 C.3     
  12 C12            0.0730    -6.3396     1.3591 C.3     
  13 C13           -0.1073    -6.8926     2.7742 C.3     
  14 O14           -0.9737    -4.7657    -0.8798 O.3     
  15 C15           -0.7107    -5.8993    -1.5819 C.ar    
  16 C16           -1.7038    -6.4842    -2.3541 C.ar    
  17 C17           -1.4345    -7.6364    -3.0669 C.ar    
  18 C18           -0.1756    -8.2074    -3.0107 C.ar    
  19 C19            0.8161    -7.6257    -2.2412 C.ar    
  20 C20            0.5527    -6.4700    -1.5318 C.ar    
  21 Br21           0.1899    -9.7854    -3.9866 Br      
  22 C22           -1.3376     3.5559     0.1895 C.3     
  23 C23           -2.7732     4.0823     0.2450 C.3     
  24 H24            2.0446    -0.0732    -0.0089 H       
  25 H25            2.1319    -2.5304    -0.0685 H       
  26 H26           -2.1287    -2.7052     0.0744 H       
  27 H27           -2.2386    -0.2492     0.1470 H       
  28 H28            1.0346    -4.5830    -0.4303 H       
  29 H29            0.6281    -4.3726     2.0400 H       
  30 H30           -1.1133    -4.5814     1.7365 H       
  31 H31           -0.6675    -6.7879     0.6967 H       
  32 H32            1.0740    -6.5791     1.0002 H       
  33 H33            0.6332    -6.4442     3.4366 H       
  34 H34           -1.1082    -6.6531     3.1331 H       
  35 H35            0.0248    -7.9745     2.7611 H       
  36 H36           -2.6869    -6.0391    -2.3977 H       
  37 H37           -2.2073    -8.0920    -3.6682 H       
  38 H38            1.7982    -8.0730    -2.1987 H       
  39 H39            1.3285    -6.0138    -0.9347 H       
  40 H40           -0.7930     3.8922     1.0718 H       
  41 H41           -0.8463     3.9343    -0.7069 H       
  42 H42           -3.3178     3.7461    -0.6373 H       
  43 H43           -3.2645     3.7039     1.1414 H       
  44 H44           -2.7599     5.1719     0.2704 H       
@<TRIPOS>BOND
   1    1    2 1
   2    1    8 2
   3    1    9 1
   4    2    3 ar
   5    2    7 ar
   6    3    4 ar
   7    3   24 1
   8    4    5 ar
   9    4   25 1
  10    5    6 ar
  11    5   10 1
  12    6    7 ar
  13    6   26 1
  14    7   27 1
  15    9   22 1
  16   10   11 1
  17   10   14 1
  18   10   28 1
  19   11   12 1
  20   11   29 1
  21   11   30 1
  22   12   13 1
  23   12   31 1
  24   12   32 1
  25   13   33 1
  26   13   34 1
  27   13   35 1
  28   14   15 1
  29   15   16 ar
  30   15   20 ar
  31   16   17 ar
  32   16   36 1
  33   17   18 ar
  34   17   37 1
  35   18   19 ar
  36   18   21 1
  37   19   20 ar
  38   19   38 1
  39   20   39 1
  40   22   23 1
  41   22   40 1
  42   22   41 1
  43   23   42 1
  44   23   43 1
  45   23   44 1

#	End of record

