#	Name: ASD01881068
#	Creating user name:	WinNT
#	Creation time:	15. 06. 2019 19:41

#	Modifying user name:	WinNT
#	Modification time:	15. 06. 2019 19:41

#	Program:	/corina/corina34_cracker 3.40 0067  02.08.2006

@<TRIPOS>MOLECULE
ASD01881068
  36   38    0    0    0
SMALL
NO_CHARGES


@<TRIPOS>ATOM
   1 C1            -0.0169     1.3946     0.0097 C.ar    
   2 C2             0.0021    -0.0041     0.0020 C.ar    
   3 C3             1.2087    -0.6924    -0.0128 C.ar    
   4 C4             2.4035     0.0243    -0.0204 C.ar    
   5 C5             2.3732     1.4391    -0.0130 C.ar    
   6 C6             1.1480     2.1092     0.0024 C.ar    
   7 C7             3.7067    -0.6436    -0.0354 C.2     
   8 C8             4.8270     0.0964    -0.0418 C.2     
   9 N9             4.8018     1.4617    -0.0348 N.am    
  10 C10            3.6499     2.1607    -0.0209 C.2     
  11 C11            6.0717     2.1921    -0.0426 C.3     
  12 C12            6.5008     2.4536    -1.4877 C.3     
  13 C13            7.8271     3.2164    -1.4959 C.3     
  14 O14            3.6687     3.3785    -0.0150 O.2     
  15 Cl15           1.1048     3.8447     0.0110 Cl      
  16 C16           -1.2757    -0.7579     0.0102 C.ar    
  17 C17           -2.5033    -0.0898     0.0255 C.ar    
  18 C18           -3.6681    -0.8298     0.0322 C.ar    
  19 N19           -3.6327    -2.1484     0.0248 N.ar    
  20 C20           -2.4958    -2.8172     0.0103 C.ar    
  21 C21           -1.2848    -2.1555    -0.0031 C.ar    
  22 H22           -0.9629     1.9156     0.0170 H       
  23 H23            1.2205    -1.7724    -0.0180 H       
  24 H24            3.7660    -1.7220    -0.0410 H       
  25 H25            5.7827    -0.4065    -0.0526 H       
  26 H26            5.9477     3.1422     0.4771 H       
  27 H27            6.8350     1.5992     0.4614 H       
  28 H28            6.6249     1.5035    -2.0074 H       
  29 H29            5.7375     3.0465    -1.9917 H       
  30 H30            8.1327     3.4027    -2.5254 H       
  31 H31            7.7030     4.1665    -0.9762 H       
  32 H32            8.5903     2.6235    -0.9919 H       
  33 H33           -2.5397     0.9896     0.0324 H       
  34 H34           -4.6215    -0.3225     0.0441 H       
  35 H35           -2.5130    -3.8970     0.0047 H       
  36 H36           -0.3578    -2.7094    -0.0149 H       
@<TRIPOS>BOND
   1    1    2 ar
   2    1    6 ar
   3    1   22 1
   4    2    3 ar
   5    2   16 1
   6    3    4 ar
   7    3   23 1
   8    4    5 ar
   9    4    7 1
  10    5    6 ar
  11    5   10 1
  12    6   15 1
  13    7    8 2
  14    7   24 1
  15    8    9 1
  16    8   25 1
  17    9   10 am
  18    9   11 1
  19   10   14 2
  20   11   12 1
  21   11   26 1
  22   11   27 1
  23   12   13 1
  24   12   28 1
  25   12   29 1
  26   13   30 1
  27   13   31 1
  28   13   32 1
  29   16   17 ar
  30   16   21 ar
  31   17   18 ar
  32   17   33 1
  33   18   19 ar
  34   18   34 1
  35   19   20 ar
  36   20   21 ar
  37   20   35 1
  38   21   36 1

#	End of record

