#	Name: ASD01912623
#	Creating user name:	WinNT
#	Creation time:	15. 06. 2019 20:00

#	Modifying user name:	WinNT
#	Modification time:	15. 06. 2019 20:00

#	Program:	/corina/corina34_cracker 3.40 0067  02.08.2006

@<TRIPOS>MOLECULE
ASD01912623
  37   39    0    0    0
SMALL
NO_CHARGES


@<TRIPOS>ATOM
   1 C1            -0.0167     1.3789     0.0096 C.2     
   2 C2             0.0021    -0.0041     0.0020 C.2     
   3 C3             1.2507    -0.6673    -0.0135 C.2     
   4 N4             2.3633     0.0254    -0.0204 N.2     
   5 C5             2.3483     1.3645    -0.0130 C.2     
   6 N6             1.1652     2.0483     0.0019 N.pl3   
   7 N7             3.3231     2.2675    -0.0171 N.2     
   8 C8             2.8044     3.4880    -0.0053 C.2     
   9 N9             1.4951     3.4102     0.0066 N.2     
  10 C10           -1.2202    -0.7502     0.0101 C.1     
  11 C11           -2.2222    -1.3619     0.0168 C.1     
  12 C12           -3.4444    -2.1080     0.0249 C.ar    
  13 C13           -3.4141    -3.5046     0.0172 C.ar    
  14 C14           -4.5966    -4.2171     0.0250 C.ar    
  15 C15           -5.8100    -3.5501     0.0406 C.ar    
  16 C16           -4.6731    -1.4424     0.0465 C.ar    
  17 C17            3.5983     4.7689    -0.0045 C.3     
  18 C18            5.0930     4.4425    -0.0200 C.3     
  19 C19            3.2426     5.5901    -1.2455 C.3     
  20 C20            3.2652     5.5746     1.2529 C.3     
  21 C21           -5.8466    -2.1668     0.0484 C.ar    
  22 Cl22          -4.5622    -5.9527     0.0148 Cl      
  23 H23           -0.9534     1.9164     0.0170 H       
  24 H24            1.2876    -1.7467    -0.0192 H       
  25 H25           -2.4681    -4.0256     0.0046 H       
  26 H26           -6.7322    -4.1122     0.0464 H       
  27 H27           -4.7036    -0.3629     0.0571 H       
  28 H28            5.3303     3.8686    -0.9157 H       
  29 H29            5.6672     5.3690    -0.0194 H       
  30 H30            5.3463     3.8575     0.8641 H       
  31 H31            2.1778     5.8226    -1.2344 H       
  32 H32            3.8169     6.5166    -1.2449 H       
  33 H33            3.4799     5.0161    -2.1412 H       
  34 H34            3.5185     4.9895     2.1370 H       
  35 H35            3.8394     6.5010     1.2534 H       
  36 H36            2.2003     5.8070     1.2639 H       
  37 H37           -6.7966    -1.6533     0.0605 H       
@<TRIPOS>BOND
   1    1    2 2
   2    1    6 1
   3    1   23 1
   4    2    3 1
   5    2   10 1
   6    3    4 2
   7    3   24 1
   8    4    5 1
   9    5    6 1
  10    5    7 2
  11    6    9 1
  12    7    8 1
  13    8    9 2
  14    8   17 1
  15   10   11 3
  16   11   12 1
  17   12   13 ar
  18   12   16 ar
  19   13   14 ar
  20   13   25 1
  21   14   15 ar
  22   14   22 1
  23   15   21 ar
  24   15   26 1
  25   16   21 ar
  26   16   27 1
  27   17   18 1
  28   17   19 1
  29   17   20 1
  30   18   28 1
  31   18   29 1
  32   18   30 1
  33   19   31 1
  34   19   32 1
  35   19   33 1
  36   20   34 1
  37   20   35 1
  38   20   36 1
  39   21   37 1

#	End of record

