#	Name: ASD03080041
#	Creating user name:	WinNT
#	Creation time:	15. 06. 2019 20:26

#	Modifying user name:	WinNT
#	Modification time:	15. 06. 2019 20:26

#	Program:	/corina/corina34_cracker 3.40 0067  02.08.2006

@<TRIPOS>MOLECULE
ASD03080041
  28   30    0    0    0
SMALL
NO_CHARGES


@<TRIPOS>ATOM
   1 O1            -0.0144     1.2085     0.0087 O.3     
   2 N2             0.0021    -0.0041     0.0020 N.2     
   3 C3             1.2349    -0.4420    -0.0121 C.2     
   4 N4             2.0455     0.6368    -0.0141 N.2     
   5 C5             1.2410     1.6828    -0.0008 C.2     
   6 C6             3.0160    -2.1950    -0.0376 C.ar    
   7 C7             1.6630    -1.8633    -0.0234 C.ar    
   8 C8             0.7155    -2.8900    -0.0194 C.ar    
   9 C9             1.1658    -4.1993    -0.0299 C.ar    
  10 C10            2.5262    -4.4464    -0.0438 C.ar    
  11 N11            3.3972    -3.4557    -0.0472 N.ar    
  12 C12            1.6452     3.1049     0.0023 C.ar    
  13 C13            0.6759     4.1091     0.0167 C.ar    
  14 C14            1.0597     5.4340     0.0194 C.ar    
  15 C15            2.4024     5.7685     0.0079 C.ar    
  16 C16            3.3681     4.7781    -0.0064 C.ar    
  17 C17            2.9976     3.4490    -0.0034 C.ar    
  18 N18            0.0332     6.5003     0.0341 N.pl3   
  19 O19           -1.1490     6.2074     0.0438 O.2     
  20 O20            0.3707     7.6706     0.0365 O.2     
  21 H21            3.7590    -1.4112    -0.0453 H       
  22 H22           -0.3414    -2.6681    -0.0081 H       
  23 H23            0.4622    -5.0186    -0.0269 H       
  24 H24            2.8811    -5.4664    -0.0516 H       
  25 H25           -0.3724     3.8494     0.0253 H       
  26 H26            2.6977     6.8073     0.0097 H       
  27 H27            4.4144     5.0458    -0.0157 H       
  28 H28            3.7525     2.6767    -0.0101 H       
@<TRIPOS>BOND
   1    1    2 1
   2    1    5 1
   3    2    3 2
   4    3    4 1
   5    3    7 1
   6    4    5 2
   7    5   12 1
   8    6    7 ar
   9    6   11 ar
  10    6   21 1
  11    7    8 ar
  12    8    9 ar
  13    8   22 1
  14    9   10 ar
  15    9   23 1
  16   10   11 ar
  17   10   24 1
  18   12   13 ar
  19   12   17 ar
  20   13   14 ar
  21   13   25 1
  22   14   15 ar
  23   14   18 1
  24   15   16 ar
  25   15   26 1
  26   16   17 ar
  27   16   27 1
  28   17   28 1
  29   18   19 2
  30   18   20 2

#	End of record

