#	Name: ASD09740212
#	Creating user name:	WinNT
#	Creation time:	15. 06. 2019 21:22

#	Modifying user name:	WinNT
#	Modification time:	15. 06. 2019 21:22

#	Program:	/corina/corina34_cracker 3.40 0067  02.08.2006

@<TRIPOS>MOLECULE
ASD09740212
  35   37    0    0    0
SMALL
NO_CHARGES


@<TRIPOS>ATOM
   1 O1            -0.0144     1.2085     0.0087 O.3     
   2 N2             0.0021    -0.0041     0.0020 N.2     
   3 C3             1.2411     1.6826    -0.0008 C.2     
   4 N4             2.0453     0.6364    -0.0141 N.2     
   5 C5             1.2345    -0.4420    -0.0121 C.2     
   6 C6             1.6624    -1.8642    -0.0234 C.ar    
   7 C7             1.6457     3.1047     0.0030 C.ar    
   8 C8             3.0192    -2.2052    -0.0377 C.ar    
   9 C9             0.7229    -2.8935    -0.0142 C.ar    
  10 C10            1.1674    -4.2105    -0.0254 C.ar    
  11 N11            2.4621    -4.4867    -0.0444 N.ar    
  12 C12            3.3779    -3.5362    -0.0479 C.ar    
  13 C13            2.9987     3.4480    -0.0086 C.ar    
  14 C14            3.3728     4.7760    -0.0050 C.ar    
  15 C15            2.4112     5.7696     0.0101 C.ar    
  16 C16            1.0633     5.4378     0.0222 C.ar    
  17 C17            0.6768     4.1079     0.0124 C.ar    
  18 C18            2.8279     7.2178     0.0140 C.3     
  19 N19            0.2427    -5.2486    -0.0159 N.pl3   
  20 O20            0.1225     6.4185     0.0374 O.3     
  21 C21           -1.2454     6.0051     0.0492 C.3     
  22 H22            3.7763    -1.4350    -0.0411 H       
  23 H23           -0.3338    -2.6714     0.0017 H       
  24 H24            4.4238    -3.8052    -0.0637 H       
  25 H25            3.7523     2.6745    -0.0200 H       
  26 H26            4.4199     5.0404    -0.0136 H       
  27 H27           -0.3715     3.8485     0.0217 H       
  28 H28            2.9182     7.5727    -1.0127 H       
  29 H29            2.0783     7.8103     0.5386 H       
  30 H30            3.7888     7.3181     0.5188 H       
  31 H31           -0.7071    -5.0520    -0.0016 H       
  32 H32            0.5473    -6.1695    -0.0237 H       
  33 H33           -1.4537     5.4132    -0.8420 H       
  34 H34           -1.4353     5.4032     0.9379 H       
  35 H35           -1.8903     6.8838     0.0609 H       
@<TRIPOS>BOND
   1    1    2 1
   2    1    3 1
   3    2    5 2
   4    3    4 2
   5    3    7 1
   6    4    5 1
   7    5    6 1
   8    6    8 ar
   9    6    9 ar
  10    7   13 ar
  11    7   17 ar
  12    8   12 ar
  13    8   22 1
  14    9   10 ar
  15    9   23 1
  16   10   11 ar
  17   10   19 1
  18   11   12 ar
  19   12   24 1
  20   13   14 ar
  21   13   25 1
  22   14   15 ar
  23   14   26 1
  24   15   16 ar
  25   15   18 1
  26   16   17 ar
  27   16   20 1
  28   17   27 1
  29   18   28 1
  30   18   29 1
  31   18   30 1
  32   19   31 1
  33   19   32 1
  34   20   21 1
  35   21   33 1
  36   21   34 1
  37   21   35 1

#	End of record

