#	Name: ASD06600047
#	Creating user name:	WinNT
#	Creation time:	15. 06. 2019 21:07

#	Modifying user name:	WinNT
#	Modification time:	15. 06. 2019 21:07

#	Program:	/corina/corina34_cracker 3.40 0067  02.08.2006

@<TRIPOS>MOLECULE
ASD06600047
 295  298    0    0    0
SMALL
NO_CHARGES


@<TRIPOS>ATOM
   1 C1            -2.5552     6.7736    13.8316 C.2     
   2 O2            -2.3630     5.6060    14.0972 O.2     
   3 N3            -0.2603     7.1077    14.5463 N.am    
   4 C4            -1.4532     7.7825    14.0288 C.3     
   5 C5            -1.1235     8.4459    12.6901 C.3     
   6 C6            -0.1096     9.5394    12.9076 C.2     
   7 C7             1.0773     9.6541    12.2818 C.2     
   8 N8             1.6767    10.7823    12.7731 N.pl3   
   9 C9             0.8346    11.3183    13.6826 C.2     
  10 N10           -0.2338    10.5723    13.7542 N.2     
  11 C11           -5.7751     6.6871    12.1031 C.2     
  12 O12           -5.5804     7.7585    11.5691 O.2     
  13 N13           -3.7525     7.1681    13.3548 N.am    
  14 C14           -4.8219     6.1864    13.1574 C.3     
  15 C15           -5.5769     5.9833    14.4725 C.3     
  16 C16           -9.1245     5.8025    10.9359 C.2     
  17 O17           -9.2514     4.8778    11.7103 O.2     
  18 N18           -6.8440     5.9443    11.7535 N.am    
  19 C19           -7.7706     6.4311    10.7285 C.3     
  20 C20           -7.2412     6.0562     9.3428 C.3     
  21 C21           -5.9331     6.8040     9.0772 C.3     
  22 C22           -6.9876     4.5485     9.2845 C.3     
  23 C23          -12.3153     5.8642     9.1532 C.2     
  24 O24          -11.8677     6.5542     8.2619 O.2     
  25 N25          -10.1941     6.2679    10.2609 N.am    
  26 C26          -11.4883     5.5924    10.3834 C.3     
  27 C27          -12.2230     6.1179    11.6182 C.3     
  28 C28          -11.4561     5.7381    12.8586 C.2     
  29 C29          -11.0239     6.5852    13.8122 C.2     
  30 N30          -10.3788     5.8275    14.7521 N.pl3   
  31 C31          -10.4392     4.5430    14.3399 C.2     
  32 N32          -11.0893     4.4965    13.2093 N.2     
  33 C33          -15.8187     5.4719     8.1861 C.2     
  34 O34          -16.1562     5.1848     9.3151 O.2     
  35 N35          -13.5523     5.3404     9.0435 N.am    
  36 C36          -14.3562     5.6047     7.8477 C.3     
  37 C37          -13.9919     4.5971     6.7554 C.3     
  38 C38          -18.9484     5.2023     6.3166 C.2     
  39 O39          -18.3702     5.0793     5.2576 O.2     
  40 N40          -16.7515     5.6722     7.2342 N.am    
  41 C41          -18.1733     5.5431     7.5632 C.3     
  42 C42          -18.6861     6.8654     8.1371 C.3     
  43 C43          -17.9973     7.1448     9.4480 C.ar    
  44 C44          -16.8148     7.8612     9.4674 C.ar    
  45 C45          -16.1812     8.1182    10.6678 C.ar    
  46 C46          -16.7326     7.6574    11.8545 C.ar    
  47 O47          -16.1114     7.9093    13.0366 O.3     
  48 C48          -17.9194     6.9393    11.8324 C.ar    
  49 C49          -18.5518     6.6893    10.6298 C.ar    
  50 C50          -22.4662     5.1566     5.3236 C.2     
  51 O51          -22.8200     5.7030     6.3469 O.2     
  52 N52          -20.2842     5.0341     6.3786 N.am    
  53 C53          -21.0378     4.7028     5.1667 C.3     
  54 C54          -21.0050     3.1895     4.9435 C.3     
  55 C55          -19.5681     2.7467     4.6604 C.3     
  56 C56          -19.5354     1.2334     4.4372 C.3     
  57 N57          -18.1595     0.8094     4.1662 N.pl3   
  58 C58          -17.8823    -0.5168     3.9327 C.2     
  59 N59          -18.8435    -1.3968     3.9525 N.2     
  60 N60          -16.5911    -0.9146     3.6783 N.pl3   
  61 C61          -25.6300     4.5683     3.5895 C.2     
  62 O62          -25.1520     3.6955     2.8962 O.2     
  63 N63          -23.3506     4.9553     4.3267 N.am    
  64 C64          -24.7392     5.3965     4.4792 C.3     
  65 C65          -24.8524     6.8704     4.0844 C.3     
  66 C66          -24.0584     7.7115     5.0504 C.2     
  67 C67          -23.0860     8.5847     4.7254 C.2     
  68 N68          -22.6346     9.1290     5.8974 N.pl3   
  69 C69          -23.3474     8.5691     6.8985 C.2     
  70 N70          -24.2004     7.7261     6.3840 N.2     
  71 C71          -29.0695     4.7736     2.3684 C.2     
  72 O72          -29.2192     5.8926     2.8116 O.2     
  73 N73          -26.9579     4.7976     3.5641 N.am    
  74 C74          -27.8239     3.9925     2.6992 C.3     
  75 C75          -28.2090     2.7009     3.4233 C.3     
  76 C76          -26.9577     1.8497     3.6482 C.3     
  77 C77          -27.3428     0.5581     4.3723 C.3     
  78 N78          -26.1447    -0.2569     4.5877 N.pl3   
  79 C79          -26.2446    -1.4712     5.2246 C.2     
  80 N80          -25.1786    -2.1963     5.4162 N.2     
  81 N81          -27.4690    -1.9207     5.6592 N.pl3   
  82 C82          -32.3461     4.0335     0.9264 C.2     
  83 O83          -32.1506     2.8369     0.9553 O.2     
  84 N84          -30.0172     4.2286     1.5802 N.am    
  85 C85          -31.2281     4.9879     1.2587 C.3     
  86 C86          -30.9574     5.8946     0.0564 C.3     
  87 C87          -29.9101     6.9439     0.4346 C.3     
  88 C88          -29.6394     7.8507    -0.7676 C.3     
  89 N89          -28.6366     8.8554    -0.4055 N.pl3   
  90 C90          -28.2307     9.7866    -1.3320 C.2     
  91 N91          -28.7381     9.7754    -2.5326 N.2     
  92 N92          -27.2897    10.7295    -0.9921 N.pl3   
  93 C93          -35.6525     4.2724    -0.6143 C.2     
  94 O94          -35.4765     5.4259    -0.9451 O.2     
  95 N95          -33.5632     4.5097     0.5971 N.am    
  96 C96          -34.6499     3.5820     0.2741 C.3     
  97 C97          -35.3371     3.1321     1.5650 C.3     
  98 C98          -34.3524     2.3230     2.4116 C.3     
  99 C99          -34.9979     1.9794     3.7556 C.3     
 100 C100         -33.9881     1.0320     1.6759 C.3     
 101 C101         -39.0720     3.8035    -1.7002 C.2     
 102 O102         -39.2926     3.0436    -0.7811 O.2     
 103 N103         -36.7447     3.6081    -1.0412 N.am    
 104 C104         -37.6600     4.2397    -1.9949 C.3     
 105 C105         -37.2832     3.8209    -3.4174 C.3     
 106 C106         -37.2263     2.2942    -3.5014 C.3     
 107 C107         -38.6365     1.7219    -3.3437 C.3     
 108 C108         -35.9139     4.4026    -3.7745 C.3     
 109 C109         -42.3341     3.9855    -3.3400 C.2     
 110 O110         -41.8427     4.2811    -4.4087 O.2     
 111 N111         -40.0898     4.2579    -2.4580 N.am    
 112 C112         -41.4717     3.9227    -2.1057 C.3     
 113 C113         -41.9906     4.9219    -1.0697 C.3     
 114 O114         -42.0547     6.2243    -1.6544 O.3     
 115 C115         -44.9445     5.1935    -4.6795 C.2     
 116 O116         -44.6034     6.0646    -3.9149 O.2     
 117 N117         -43.6514     3.7132    -3.2563 N.am    
 118 C118         -44.4897     3.7742    -4.4562 C.3     
 119 C119         -45.7104     2.8705    -4.2719 C.3     
 120 C120         -46.5203     2.8365    -5.5696 C.3     
 121 C121         -47.6703     1.8374    -5.4270 C.3     
 122 C122         -46.5832     3.4167    -3.1402 C.3     
 123 O123         -45.7286     5.4899    -5.7279 O.3     
 124 C124           0.6491     7.8001    15.2605 C.2     
 125 O125           0.4799     8.9817    15.4748 O.2     
 126 C126          16.6244     9.2035    24.9564 C.3     
 127 C127          15.3785     9.9083    24.4160 C.3     
 128 C128          14.5175     8.9039    23.6473 C.3     
 129 C129          13.2716     9.6086    23.1069 C.3     
 130 C130          12.4106     8.6042    22.3383 C.3     
 131 C131          11.1648     9.3089    21.7978 C.3     
 132 C132          10.3038     8.3046    21.0292 C.3     
 133 C133           9.0579     9.0093    20.4887 C.3     
 134 C134           8.1969     8.0049    19.7201 C.3     
 135 C135           6.9510     8.7096    19.1796 C.3     
 136 C136           6.0900     7.7052    18.4110 C.3     
 137 C137           4.8442     8.4100    17.8705 C.3     
 138 C138           3.9831     7.4056    17.1019 C.3     
 139 C139           2.7373     8.1103    16.5615 C.3     
 140 C140           1.8763     7.1059    15.7929 C.3     
 141 H141          -0.1249     6.1626    14.3750 H       
 142 H142          -1.7786     8.5416    14.7401 H       
 143 H143          -0.7143     7.7017    12.0068 H       
 144 H144          -2.0311     8.8717    12.2623 H       
 145 H145           1.4791     8.9843    11.5359 H       
 146 H146           2.5443    11.1317    12.5159 H       
 147 H147           1.0138    12.2175    14.2533 H       
 148 H148          -3.9062     8.1020    13.1424 H       
 149 H149          -4.3901     5.2385    12.8362 H       
 150 H150          -6.3725     5.2529    14.3257 H       
 151 H151          -4.8874     5.6211    15.2351 H       
 152 H152          -6.0086     6.9312    14.7937 H       
 153 H153          -6.9997     5.0874    12.1805 H       
 154 H154          -7.8581     7.5150    10.8030 H       
 155 H155          -7.9765     6.3305     8.5865 H       
 156 H156          -5.1633     6.4432     9.7594 H       
 157 H157          -5.6175     6.6300     8.0485 H       
 158 H158          -6.0865     7.8717     9.2345 H       
 159 H159          -7.9195     4.0158     9.4737 H       
 160 H160          -6.6104     4.2814     8.2973 H       
 161 H161          -6.2522     4.2742    10.0409 H       
 162 H162         -10.1071     7.0501     9.6939 H       
 163 H163         -11.3296     4.5187    10.4846 H       
 164 H164         -12.3032     7.2033    11.5587 H       
 165 H165         -13.2210     5.6816    11.6603 H       
 166 H166         -11.1598     7.6564    13.8315 H       
 167 H167          -9.9569     6.1526    15.5629 H       
 168 H168         -10.0222     3.6942    14.8615 H       
 169 H169         -13.9102     4.7885     9.7564 H       
 170 H170         -14.1560     6.6151     7.4913 H       
 171 H171         -14.1921     3.5867     7.1118 H       
 172 H172         -14.5901     4.7937     5.8656 H       
 173 H173         -12.9341     4.6932     6.5106 H       
 174 H174         -16.4816     5.9018     6.3313 H       
 175 H175         -18.3051     4.7515     8.3008 H       
 176 H176         -18.4738     7.6725     7.4359 H       
 177 H177         -19.7619     6.7984     8.2990 H       
 178 H178         -16.3859     8.2197     8.5433 H       
 179 H179         -15.2572     8.6772    10.6823 H       
 180 H180         -16.3884     8.7342    13.4585 H       
 181 H181         -18.3504     6.5791    12.7548 H       
 182 H182         -19.4780     6.1341    10.6125 H       
 183 H183         -20.7467     5.1324     7.2255 H       
 184 H184         -20.5886     5.2061     4.3105 H       
 185 H185         -21.3723     2.6826     5.8359 H       
 186 H186         -21.6381     2.9337     4.0939 H       
 187 H187         -19.2009     3.2536     3.7681 H       
 188 H188         -18.9350     3.0024     5.5100 H       
 189 H189         -19.9026     0.7265     5.3296 H       
 190 H190         -20.1685     0.9777     3.5876 H       
 191 H191         -17.4442     1.4644     4.1514 H       
 192 H192         -18.6479    -2.3325     3.7877 H       
 193 H193         -15.8758    -0.2597     3.6635 H       
 194 H194         -16.3955    -1.8503     3.5135 H       
 195 H195         -23.0677     4.5183     3.5082 H       
 196 H196         -25.0475     5.2738     5.5175 H       
 197 H197         -24.4610     7.0076     3.0764 H       
 198 H198         -25.8986     7.1747     4.1124 H       
 199 H199         -22.7304     8.8115     3.7312 H       
 200 H200         -21.9336     9.7928     5.9913 H       
 201 H201         -23.2332     8.7861     7.9503 H       
 202 H202         -27.3402     5.4957     4.1186 H       
 203 H203         -27.2929     3.7487     1.7790 H       
 204 H204         -28.6606     2.9443     4.3850 H       
 205 H205         -28.9233     2.1437     2.8171 H       
 206 H206         -26.5061     1.6063     2.6865 H       
 207 H207         -26.2434     2.4070     4.2544 H       
 208 H208         -27.7944     0.8015     5.3340 H       
 209 H209         -28.0571     0.0009     3.7662 H       
 210 H210         -25.2808     0.0603     4.2811 H       
 211 H211         -25.2491    -3.0530     5.8656 H       
 212 H212         -28.2624    -1.3811     5.5166 H       
 213 H213         -27.5396    -2.7775     6.1086 H       
 214 H214         -29.8975     3.3336     1.2258 H       
 215 H215         -31.5134     5.5972     2.1163 H       
 216 H216         -30.5869     5.2948    -0.7749 H       
 217 H217         -31.8810     6.3928    -0.2382 H       
 218 H218         -30.2806     7.5438     1.2659 H       
 219 H219         -28.9865     6.4457     0.7293 H       
 220 H220         -29.2689     7.2508    -1.5990 H       
 221 H221         -30.5630     8.3489    -1.0623 H       
 222 H222         -28.2590     8.8637     0.4880 H       
 223 H223         -28.4517    10.4324    -3.1862 H       
 224 H224         -26.9121    10.7378    -0.0987 H       
 225 H225         -27.0033    11.3864    -1.6458 H       
 226 H226         -33.7195     5.4668     0.5740 H       
 227 H227         -34.2439     2.7128    -0.2433 H       
 228 H228         -35.6650     4.0072     2.1260 H       
 229 H229         -36.2001     2.5129     1.3204 H       
 230 H230         -33.4506     2.9113     2.5815 H       
 231 H231         -35.8997     1.3912     3.5857 H       
 232 H232         -34.2964     1.4030     4.3587 H       
 233 H233         -35.2574     2.8992     4.2798 H       
 234 H234         -34.8899     0.4438     1.5060 H       
 235 H235         -33.5283     1.2768     0.7184 H       
 236 H236         -33.2866     0.4556     2.2790 H       
 237 H237         -36.9247     2.7117    -0.7171 H       
 238 H238         -37.5881     5.3235    -1.9042 H       
 239 H239         -38.0308     4.1956    -4.1165 H       
 240 H240         -36.8203     1.9984    -4.4687 H       
 241 H241         -36.5873     1.9102    -2.7063 H       
 242 H242         -38.6468     0.6842    -3.6769 H       
 243 H243         -38.9330     1.7700    -2.2959 H       
 244 H244         -39.3342     2.3038    -3.9458 H       
 245 H245         -35.1761     4.0696    -3.0446 H       
 246 H246         -35.6221     4.0615    -4.7678 H       
 247 H247         -35.9681     5.4913    -3.7656 H       
 248 H248         -39.9072     4.8068    -3.2366 H       
 249 H249         -41.5066     2.9162    -1.6890 H       
 250 H250         -42.9857     4.6215    -0.7418 H       
 251 H251         -41.3162     4.9408    -0.2136 H       
 252 H252         -42.3761     6.9100    -1.0531 H       
 253 H253         -44.0444     3.4768    -2.4016 H       
 254 H254         -43.9148     3.4369    -5.3186 H       
 255 H255         -45.3814     1.8617    -4.0225 H       
 256 H256         -46.9239     3.8286    -5.7720 H       
 257 H257         -45.8744     2.5320    -6.3931 H       
 258 H258         -48.2472     1.8132    -6.3515 H       
 259 H259         -47.2667     0.8453    -5.2245 H       
 260 H260         -48.3162     2.1419    -4.6035 H       
 261 H261         -47.4529     2.7728    -3.0090 H       
 262 H262         -46.0062     3.4409    -2.2157 H       
 263 H263         -46.9123     4.4254    -3.3896 H       
 264 H264         -45.9947     6.4139    -5.8298 H       
 265 H265          17.2378     9.9191    25.5040 H       
 266 H266          16.3241     8.3962    25.6244 H       
 267 H267          17.1988     8.7932    24.1259 H       
 268 H268          14.8041    10.3186    25.2465 H       
 269 H269          15.6788    10.7155    23.7479 H       
 270 H270          15.0919     8.4936    22.8168 H       
 271 H271          14.2173     8.0966    24.3154 H       
 272 H272          12.6972    10.0189    23.9374 H       
 273 H273          13.5719    10.4159    22.4389 H       
 274 H274          12.9850     8.1939    21.5077 H       
 275 H275          12.1104     7.7969    23.0063 H       
 276 H276          10.5904     9.7193    22.6283 H       
 277 H277          11.4650    10.1162    21.1298 H       
 278 H278          10.8782     7.8942    20.1986 H       
 279 H279          10.0035     7.4973    21.6972 H       
 280 H280           8.4835     9.4196    21.3192 H       
 281 H281           9.3581     9.8166    19.8207 H       
 282 H282           8.7713     7.5946    18.8896 H       
 283 H283           7.8966     7.1976    20.3881 H       
 284 H284           6.3766     9.1199    20.0102 H       
 285 H285           7.2513     9.5169    18.5116 H       
 286 H286           6.6644     7.2949    17.5805 H       
 287 H287           5.7898     6.8980    19.0790 H       
 288 H288           4.2698     8.8203    18.7011 H       
 289 H289           5.1444     9.2173    17.2025 H       
 290 H290           4.5575     6.9953    16.2714 H       
 291 H291           3.6829     6.5983    17.7700 H       
 292 H292           2.1629     8.5206    17.3920 H       
 293 H293           3.0375     8.9176    15.8934 H       
 294 H294           1.5760     6.2986    16.4609 H       
 295 H295           2.4507     6.6956    14.9623 H       
@<TRIPOS>BOND
   1    1    2 2
   2    1    4 1
   3    1   13 am
   4    3  124 am
   5    3    4 1
   6    3  141 1
   7    4    5 1
   8    4  142 1
   9    5    6 1
  10    5  143 1
  11    5  144 1
  12    6    7 2
  13    6   10 1
  14    7    8 1
  15    7  145 1
  16    8    9 1
  17    8  146 1
  18    9   10 2
  19    9  147 1
  20   11   12 2
  21   11   14 1
  22   11   18 am
  23   13   14 1
  24   13  148 1
  25   14   15 1
  26   14  149 1
  27   15  150 1
  28   15  151 1
  29   15  152 1
  30   16   17 2
  31   16   19 1
  32   16   25 am
  33   18   19 1
  34   18  153 1
  35   19   20 1
  36   19  154 1
  37   20   21 1
  38   20   22 1
  39   20  155 1
  40   21  156 1
  41   21  157 1
  42   21  158 1
  43   22  159 1
  44   22  160 1
  45   22  161 1
  46   23   24 2
  47   23   26 1
  48   23   35 am
  49   25   26 1
  50   25  162 1
  51   26   27 1
  52   26  163 1
  53   27   28 1
  54   27  164 1
  55   27  165 1
  56   28   29 2
  57   28   32 1
  58   29   30 1
  59   29  166 1
  60   30   31 1
  61   30  167 1
  62   31   32 2
  63   31  168 1
  64   33   34 2
  65   33   36 1
  66   33   40 am
  67   35   36 1
  68   35  169 1
  69   36   37 1
  70   36  170 1
  71   37  171 1
  72   37  172 1
  73   37  173 1
  74   38   39 2
  75   38   41 1
  76   38   52 am
  77   40   41 1
  78   40  174 1
  79   41   42 1
  80   41  175 1
  81   42   43 1
  82   42  176 1
  83   42  177 1
  84   43   44 ar
  85   43   49 ar
  86   44   45 ar
  87   44  178 1
  88   45   46 ar
  89   45  179 1
  90   46   47 1
  91   46   48 ar
  92   47  180 1
  93   48   49 ar
  94   48  181 1
  95   49  182 1
  96   50   51 2
  97   50   53 1
  98   50   63 am
  99   52   53 1
 100   52  183 1
 101   53   54 1
 102   53  184 1
 103   54   55 1
 104   54  185 1
 105   54  186 1
 106   55   56 1
 107   55  187 1
 108   55  188 1
 109   56   57 1
 110   56  189 1
 111   56  190 1
 112   57   58 1
 113   57  191 1
 114   58   59 2
 115   58   60 1
 116   59  192 1
 117   60  193 1
 118   60  194 1
 119   61   62 2
 120   61   64 1
 121   61   73 am
 122   63   64 1
 123   63  195 1
 124   64   65 1
 125   64  196 1
 126   65   66 1
 127   65  197 1
 128   65  198 1
 129   66   67 2
 130   66   70 1
 131   67   68 1
 132   67  199 1
 133   68   69 1
 134   68  200 1
 135   69   70 2
 136   69  201 1
 137   71   72 2
 138   71   74 1
 139   71   84 am
 140   73   74 1
 141   73  202 1
 142   74   75 1
 143   74  203 1
 144   75   76 1
 145   75  204 1
 146   75  205 1
 147   76   77 1
 148   76  206 1
 149   76  207 1
 150   77   78 1
 151   77  208 1
 152   77  209 1
 153   78   79 1
 154   78  210 1
 155   79   80 2
 156   79   81 1
 157   80  211 1
 158   81  212 1
 159   81  213 1
 160   82   83 2
 161   82   85 1
 162   82   95 am
 163   84   85 1
 164   84  214 1
 165   85   86 1
 166   85  215 1
 167   86   87 1
 168   86  216 1
 169   86  217 1
 170   87   88 1
 171   87  218 1
 172   87  219 1
 173   88   89 1
 174   88  220 1
 175   88  221 1
 176   89   90 1
 177   89  222 1
 178   90   91 2
 179   90   92 1
 180   91  223 1
 181   92  224 1
 182   92  225 1
 183   93   94 2
 184   93   96 1
 185   93  103 am
 186   95   96 1
 187   95  226 1
 188   96   97 1
 189   96  227 1
 190   97   98 1
 191   97  228 1
 192   97  229 1
 193   98   99 1
 194   98  100 1
 195   98  230 1
 196   99  231 1
 197   99  232 1
 198   99  233 1
 199  100  234 1
 200  100  235 1
 201  100  236 1
 202  101  102 2
 203  101  104 1
 204  101  111 am
 205  103  104 1
 206  103  237 1
 207  104  105 1
 208  104  238 1
 209  105  106 1
 210  105  108 1
 211  105  239 1
 212  106  107 1
 213  106  240 1
 214  106  241 1
 215  107  242 1
 216  107  243 1
 217  107  244 1
 218  108  245 1
 219  108  246 1
 220  108  247 1
 221  109  110 2
 222  109  112 1
 223  109  117 am
 224  111  112 1
 225  111  248 1
 226  112  113 1
 227  112  249 1
 228  113  114 1
 229  113  250 1
 230  113  251 1
 231  114  252 1
 232  115  116 2
 233  115  118 1
 234  115  123 1
 235  117  118 1
 236  117  253 1
 237  118  119 1
 238  118  254 1
 239  119  120 1
 240  119  122 1
 241  119  255 1
 242  120  121 1
 243  120  256 1
 244  120  257 1
 245  121  258 1
 246  121  259 1
 247  121  260 1
 248  122  261 1
 249  122  262 1
 250  122  263 1
 251  123  264 1
 252  124  125 2
 253  124  140 1
 254  126  127 1
 255  126  265 1
 256  126  266 1
 257  126  267 1
 258  127  128 1
 259  127  268 1
 260  127  269 1
 261  128  129 1
 262  128  270 1
 263  128  271 1
 264  129  130 1
 265  129  272 1
 266  129  273 1
 267  130  131 1
 268  130  274 1
 269  130  275 1
 270  131  132 1
 271  131  276 1
 272  131  277 1
 273  132  133 1
 274  132  278 1
 275  132  279 1
 276  133  134 1
 277  133  280 1
 278  133  281 1
 279  134  135 1
 280  134  282 1
 281  134  283 1
 282  135  136 1
 283  135  284 1
 284  135  285 1
 285  136  137 1
 286  136  286 1
 287  136  287 1
 288  137  138 1
 289  137  288 1
 290  137  289 1
 291  138  139 1
 292  138  290 1
 293  138  291 1
 294  139  140 1
 295  139  292 1
 296  139  293 1
 297  140  294 1
 298  140  295 1

#	End of record

