#	Name: ASD03430099
#	Creating user name:	WinNT
#	Creation time:	15. 06. 2019 20:40

#	Modifying user name:	WinNT
#	Modification time:	15. 06. 2019 20:40

#	Program:	/corina/corina34_cracker 3.40 0067  02.08.2006

@<TRIPOS>MOLECULE
ASD03430099
  57   62    0    0    0
SMALL
NO_CHARGES


@<TRIPOS>ATOM
   1 C1             0.0503     1.3742    -0.0607 C.ar    
   2 C2             0.0469    -0.0120    -0.0438 C.ar    
   3 C3             1.2365    -0.7096    -0.0382 C.ar    
   4 C4             2.4530    -0.0336    -0.0408 C.ar    
   5 C5             2.4529     1.3574    -0.0639 C.ar    
   6 C6             1.2596     2.0597    -0.0720 C.ar    
   7 O7             3.5023    -0.9042    -0.0034 O.3     
   8 C8             1.5620    -2.1788    -0.0417 C.3     
   9 C9             3.0516    -2.2096    -0.4123 C.3     
  10 C10            0.4097    -3.8632     1.0323 C.ar    
  11 C11            1.3029    -2.8265     1.2858 C.ar    
  12 C12            0.7291    -2.9462    -1.0280 C.2     
  13 N13            0.0946    -3.9077    -0.3281 N.am    
  14 O14            0.6438    -2.7409    -2.2203 O.2     
  15 C15            1.7548    -2.5873     2.5707 C.ar    
  16 C16            1.3186    -3.3886     3.6198 C.ar    
  17 C17            0.4345    -4.4208     3.3728 C.ar    
  18 C18           -0.0192    -4.6599     2.0916 C.ar    
  19 N19            2.6505    -1.5400     2.8146 N.am    
  20 O20           -1.1334     2.0472    -0.0716 O.3     
  21 C21           -1.0886     3.4322     0.2891 C.3     
  22 C22            0.0782     4.0861    -0.4635 C.3     
  23 O23            1.2870     3.4209    -0.0855 O.3     
  24 C24            3.4773    -1.5942     3.8775 C.2     
  25 C25           -0.8190    -4.8854    -0.9244 C.3     
  26 N26            4.3946    -0.6253     4.0679 N.am    
  27 C27            5.2934    -0.6843     5.2233 C.3     
  28 O28            3.3958    -2.5173     4.6647 O.2     
  29 C29            6.5864     0.0951     4.9256 C.3     
  30 C30            6.6698     1.2262     5.9712 C.3     
  31 C31            5.8106     0.7143     7.1539 C.3     
  32 C32            4.6362     0.0005     6.4394 C.3     
  33 H33           -0.8909    -0.5477    -0.0346 H       
  34 H34            3.3904     1.8934    -0.0753 H       
  35 H35            3.1805    -2.3447    -1.4862 H       
  36 H36            3.5724    -2.9901     0.1424 H       
  37 H37            1.6695    -3.2044     4.6245 H       
  38 H38            0.0967    -5.0446     4.1871 H       
  39 H39           -0.7106    -5.4692     1.9092 H       
  40 H40            2.6762    -0.7751     2.2186 H       
  41 H41           -2.0243     3.9158     0.0085 H       
  42 H42           -0.9326     3.5275     1.3637 H       
  43 H43           -0.0743     3.9841    -1.5380 H       
  44 H44            0.1404     5.1418    -0.1992 H       
  45 H45           -1.8345    -4.4895    -0.9105 H       
  46 H46           -0.5197    -5.0816    -1.9540 H       
  47 H47           -0.7827    -5.8126    -0.3525 H       
  48 H48            4.4597     0.1111     3.4398 H       
  49 H49            5.5290    -1.7218     5.4602 H       
  50 H50            7.4495    -0.5640     5.0188 H       
  51 H51            6.5451     0.5172     3.9215 H       
  52 H52            7.7018     1.3782     6.2872 H       
  53 H53            6.2532     2.1494     5.5686 H       
  54 H54            6.3754     0.0109     7.7657 H       
  55 H55            5.4474     1.5469     7.7564 H       
  56 H56            3.8912     0.7258     6.1124 H       
  57 H57            4.1842    -0.7420     7.0971 H       
@<TRIPOS>BOND
   1    1    2 ar
   2    1    6 ar
   3    1   20 1
   4    2    3 ar
   5    2   33 1
   6    3    4 ar
   7    3    8 1
   8    4    5 ar
   9    4    7 1
  10    5    6 ar
  11    5   34 1
  12    6   23 1
  13    7    9 1
  14    8    9 1
  15    8   11 1
  16    8   12 1
  17    9   35 1
  18    9   36 1
  19   10   11 ar
  20   10   13 1
  21   10   18 ar
  22   11   15 ar
  23   12   13 am
  24   12   14 2
  25   13   25 1
  26   15   16 ar
  27   15   19 1
  28   16   17 ar
  29   16   37 1
  30   17   18 ar
  31   17   38 1
  32   18   39 1
  33   19   24 am
  34   19   40 1
  35   20   21 1
  36   21   22 1
  37   21   41 1
  38   21   42 1
  39   22   23 1
  40   22   43 1
  41   22   44 1
  42   24   26 am
  43   24   28 2
  44   25   45 1
  45   25   46 1
  46   25   47 1
  47   26   27 1
  48   26   48 1
  49   27   29 1
  50   27   32 1
  51   27   49 1
  52   29   30 1
  53   29   50 1
  54   29   51 1
  55   30   31 1
  56   30   52 1
  57   30   53 1
  58   31   32 1
  59   31   54 1
  60   31   55 1
  61   32   56 1
  62   32   57 1

#	End of record

