#	Name: ASD03331603
#	Creating user name:	WinNT
#	Creation time:	15. 06. 2019 20:39

#	Modifying user name:	WinNT
#	Modification time:	15. 06. 2019 20:39

#	Program:	/corina/corina34_cracker 3.40 0067  02.08.2006

@<TRIPOS>MOLECULE
ASD03331603
  59   61    0    0    0
SMALL
NO_CHARGES


@<TRIPOS>ATOM
   1 C1            -1.3140    -0.5048     1.7245 C.2     
   2 C2            -0.6800    -1.7604     1.2847 C.2     
   3 N3            -1.3116    -2.9538     1.1069 N.pl3   
   4 C4            -0.3911    -3.8505     0.6999 C.2     
   5 C5             0.8032    -3.2065     0.6303 C.2     
   6 N6             0.5936    -1.9202     0.9907 N.2     
   7 C7             2.0913    -3.8003     0.2296 C.2     
   8 N8             3.2046    -3.0411     0.2048 N.am    
   9 C9            -2.7411    -3.2625     1.3094 C.3     
  10 C10           -2.8204    -4.2794     2.4595 C.3     
  11 C11           -2.4964    -5.6705     1.9715 C.3     
  12 N12           -1.1111    -5.9404     1.6489 N.3     
  13 C13           -0.6859    -5.3059     0.3868 C.3     
  14 N14           -0.7014     0.6338     1.8922 N.2     
  15 O15            2.1495    -4.9753    -0.0787 O.2     
  16 C16            4.4850    -3.6314    -0.1935 C.3     
  17 C17           -0.8477    -7.3854     1.6266 C.3     
  18 C18           -2.9330    -6.6638     3.0503 C.3     
  19 C19            4.6078    -3.6018    -1.7182 C.3     
  20 C20            5.6138    -2.8413     0.4168 C.2     
  21 C21            4.7004    -2.1508    -2.1944 C.3     
  22 C22            5.8673    -4.3595    -2.1432 C.3     
  23 C23            3.3785    -4.2658    -2.3419 C.3     
  24 N24            6.8741    -3.3161     0.3645 N.am    
  25 O25            5.3883    -1.7781     0.9551 O.2     
  26 C26            7.9832    -2.5080     0.8773 C.3     
  27 C27           -1.4290     1.6496     2.2897 C.2     
  28 C28           -2.7302     1.3970     2.4793 C.2     
  29 S29           -3.0228    -0.2994     2.1007 S.3     
  30 H30            3.1582    -2.1040     0.4507 H       
  31 H31           -3.2834    -2.3555     1.5765 H       
  32 H32           -3.1608    -3.6945     0.4010 H       
  33 H33           -2.1099    -3.9977     3.2366 H       
  34 H34           -3.8277    -4.2714     2.8761 H       
  35 H35           -3.0935    -5.8625     1.0801 H       
  36 H36           -1.4853    -5.3729    -0.3511 H       
  37 H37            0.2123    -5.7944     0.0090 H       
  38 H38            4.5335    -4.6630     0.1551 H       
  39 H39           -1.5561    -7.8736     0.9573 H       
  40 H40            0.1680    -7.5642     1.2737 H       
  41 H41           -0.9595    -7.7907     2.6323 H       
  42 H42           -3.9787    -6.4890     3.3034 H       
  43 H43           -2.8146    -7.6810     2.6769 H       
  44 H44           -2.3166    -6.5290     3.9391 H       
  45 H45            5.5762    -1.6778    -1.7502 H       
  46 H46            4.7879    -2.1298    -3.2807 H       
  47 H47            3.8031    -1.6111    -1.8917 H       
  48 H48            5.7749    -5.4072    -1.8573 H       
  49 H49            5.9875    -4.2870    -3.2241 H       
  50 H50            6.7368    -3.9238    -1.6509 H       
  51 H51            2.4812    -3.7260    -2.0391 H       
  52 H52            3.4660    -4.2447    -3.4281 H       
  53 H53            3.3125    -5.2995    -2.0026 H       
  54 H54            7.0467    -4.1930    -0.0127 H       
  55 H55            8.0329    -1.5684     0.3272 H       
  56 H56            7.8234    -2.3015     1.9356 H       
  57 H57            8.9187    -3.0530     0.7507 H       
  58 H58           -1.0050     2.6291     2.4544 H       
  59 H59           -3.4731     2.1107     2.8036 H       
@<TRIPOS>BOND
   1    1    2 1
   2    1   14 2
   3    1   29 1
   4    2    3 1
   5    2    6 2
   6    3    4 1
   7    3    9 1
   8    4    5 2
   9    4   13 1
  10    5    6 1
  11    5    7 1
  12    7    8 am
  13    7   15 2
  14    8   16 1
  15    8   30 1
  16    9   10 1
  17    9   31 1
  18    9   32 1
  19   10   11 1
  20   10   33 1
  21   10   34 1
  22   11   12 1
  23   11   18 1
  24   11   35 1
  25   12   13 1
  26   12   17 1
  27   13   36 1
  28   13   37 1
  29   14   27 1
  30   16   19 1
  31   16   20 1
  32   16   38 1
  33   17   39 1
  34   17   40 1
  35   17   41 1
  36   18   42 1
  37   18   43 1
  38   18   44 1
  39   19   21 1
  40   19   22 1
  41   19   23 1
  42   20   24 am
  43   20   25 2
  44   21   45 1
  45   21   46 1
  46   21   47 1
  47   22   48 1
  48   22   49 1
  49   22   50 1
  50   23   51 1
  51   23   52 1
  52   23   53 1
  53   24   26 1
  54   24   54 1
  55   26   55 1
  56   26   56 1
  57   26   57 1
  58   27   28 2
  59   27   58 1
  60   28   29 1
  61   28   59 1

#	End of record

