#	Name: ASD01918202
#	Creating user name:	WinNT
#	Creation time:	15. 06. 2019 20:11

#	Modifying user name:	WinNT
#	Modification time:	15. 06. 2019 20:11

#	Program:	/corina/corina34_cracker 3.40 0067  02.08.2006

@<TRIPOS>MOLECULE
ASD01918202
  37   39    0    0    0
SMALL
NO_CHARGES


@<TRIPOS>ATOM
   1 N1            -0.0158     1.3119     0.0093 N.ar    
   2 C2             0.0021    -0.0041     0.0020 C.ar    
   3 C3             1.1993    -0.6994    -0.0131 C.ar    
   4 C4             2.3954     0.0034    -0.0208 C.ar    
   5 C5             2.3493     1.3868    -0.0129 C.ar    
   6 C6             1.1068     2.0236     0.0024 C.ar    
   7 N7             1.0443     3.3898     0.0103 N.2     
   8 N8            -0.1011     3.9830     0.0244 N.2     
   9 C9            -0.1635     5.3475     0.0323 C.ar    
  10 C10            0.9407     7.4817     0.0276 C.ar    
  11 C11            1.0118     6.1046     0.0194 C.ar    
  12 C12           -1.4030     5.9940     0.0476 C.ar    
  13 C13           -1.4579     7.3718     0.0556 C.ar    
  14 C14           -0.2901     8.1145     0.0480 C.ar    
  15 S15           -0.3706     9.8746     0.0583 S.o2    
  16 O16            0.8670    10.3298     0.5879 O.2     
  17 N17           -0.4150    10.3725    -1.5204 N.am    
  18 C18           -1.5034    10.0469    -2.3215 C.ar    
  19 C19           -3.5553     9.0134    -2.5407 C.ar    
  20 N20           -2.5037     9.3431    -1.8147 N.ar    
  21 C21           -1.5344    10.4684    -3.6471 C.ar    
  22 C22           -2.6236    10.1378    -4.4326 C.ar    
  23 C23           -3.6493     9.3938    -3.8642 C.ar    
  24 O24           -1.6296    10.2154     0.6222 O.2     
  25 H25           -0.9302    -0.5492     0.0084 H       
  26 H26            1.2019    -1.7794    -0.0186 H       
  27 H27            3.3415    -0.5173    -0.0323 H       
  28 H28            3.2613     1.9653    -0.0182 H       
  29 H29            1.8477     8.0679     0.0176 H       
  30 H30            1.9728     5.6122     0.0034 H       
  31 H31           -2.3152     5.4158     0.0529 H       
  32 H32           -2.4147     7.8727     0.0674 H       
  33 H33            0.3184    10.8914    -1.8862 H       
  34 H34           -4.3525     8.4380    -2.0936 H       
  35 H35           -0.7192    11.0463    -4.0570 H       
  36 H36           -2.6754    10.4514    -5.4648 H       
  37 H37           -4.5136     9.1192    -4.4506 H       
@<TRIPOS>BOND
   1    1    2 ar
   2    1    6 ar
   3    2    3 ar
   4    2   25 1
   5    3    4 ar
   6    3   26 1
   7    4    5 ar
   8    4   27 1
   9    5    6 ar
  10    5   28 1
  11    6    7 1
  12    7    8 2
  13    8    9 1
  14    9   12 ar
  15    9   11 ar
  16   10   11 ar
  17   10   14 ar
  18   10   29 1
  19   11   30 1
  20   12   13 ar
  21   12   31 1
  22   13   14 ar
  23   13   32 1
  24   14   15 1
  25   15   16 2
  26   15   17 am
  27   15   24 2
  28   17   18 1
  29   17   33 1
  30   18   21 ar
  31   18   20 ar
  32   19   20 ar
  33   19   23 ar
  34   19   34 1
  35   21   22 ar
  36   21   35 1
  37   22   23 ar
  38   22   36 1
  39   23   37 1

#	End of record

