#	Name: ASD03540154
#	Creating user name:	WinNT
#	Creation time:	15. 06. 2019 20:42

#	Modifying user name:	WinNT
#	Modification time:	15. 06. 2019 20:42

#	Program:	/corina/corina34_cracker 3.40 0067  02.08.2006

@<TRIPOS>MOLECULE
ASD03540154
  52   55    0    0    0
SMALL
NO_CHARGES


@<TRIPOS>ATOM
   1 C1             2.7521    -8.6911    -2.5507 C.2     
   2 C2             2.0609    -7.5585    -1.9013 C.ar    
   3 C3             0.6750    -7.5858    -1.7335 C.ar    
   4 C4             0.0360    -6.5250    -1.1258 C.ar    
   5 C5             0.7652    -5.4354    -0.6835 C.ar    
   6 C6             2.1388    -5.4016    -0.8470 C.ar    
   7 C7             2.7912    -6.4584    -1.4473 C.ar    
   8 O8             2.1147    -9.6490    -2.9400 O.2     
   9 O9             4.0887    -8.6591    -2.7160 O.3     
  10 C10            0.0601    -4.2800    -0.0210 C.3     
  11 N11           -3.3734    -4.7489     1.2281 N.am    
  12 C12           -2.2984    -4.3336     0.5368 C.2     
  13 N13           -1.0579    -4.7846     0.7800 N.am    
  14 C14           -0.8208    -5.6953     1.7489 C.2     
  15 C15           -1.9636    -6.1872     2.5402 C.ar    
  16 C16           -1.7988    -7.1240     3.5544 C.ar    
  17 C17           -2.9103    -7.5564     4.2731 C.ar    
  18 C18           -4.1799    -7.0502     3.9736 C.ar    
  19 C19           -4.3434    -6.1222     2.9690 C.ar    
  20 C20           -3.2434    -5.6826     2.2454 C.ar    
  21 C21           -2.7539    -8.5209     5.3200 C.1     
  22 C22           -2.6257    -9.3116     6.1782 C.1     
  23 C23           -2.4649   -10.3030     7.2543 C.3     
  24 C24           -3.8084   -10.5991     7.8694 C.ar    
  25 C25           -4.5913   -11.6191     7.3619 C.ar    
  26 C26           -5.8237   -11.8906     7.9261 C.ar    
  27 C27           -6.2730   -11.1425     8.9981 C.ar    
  28 C28           -5.4897   -10.1231     9.5063 C.ar    
  29 C29           -4.2554    -9.8544     8.9448 C.ar    
  30 O30            0.3059    -6.0993     1.9629 O.2     
  31 O31           -2.4564    -3.5142    -0.3473 O.2     
  32 C32            1.0420    -3.5355     0.8859 C.3     
  33 H33            0.1046    -8.4353    -2.0789 H       
  34 H34           -1.0359    -6.5448    -0.9954 H       
  35 H35            2.7018    -4.5478    -0.5000 H       
  36 H36            3.8639    -6.4329    -1.5700 H       
  37 H37            4.4962    -9.4233    -3.1462 H       
  38 H38           -0.3177    -3.5992    -0.7838 H       
  39 H39           -4.2489    -4.3889     1.0160 H       
  40 H40           -0.8174    -7.5132     3.7824 H       
  41 H41           -5.0382    -7.3900     4.5342 H       
  42 H42           -5.3269    -5.7364     2.7447 H       
  43 H43           -2.0434   -11.2203     6.8432 H       
  44 H44           -1.7955    -9.9057     8.0174 H       
  45 H45           -4.2402   -12.2036     6.5243 H       
  46 H46           -6.4356   -12.6871     7.5290 H       
  47 H47           -7.2361   -11.3542     9.4385 H       
  48 H48           -5.8409    -9.5384    10.3436 H       
  49 H49           -3.6419    -9.0604     9.3442 H       
  50 H50            0.5320    -2.6998     1.3650 H       
  51 H51            1.4198    -4.2163     1.6487 H       
  52 H52            1.8739    -3.1600     0.2899 H       
@<TRIPOS>BOND
   1    1    2 1
   2    1    8 2
   3    1    9 1
   4    2    3 ar
   5    2    7 ar
   6    3    4 ar
   7    3   33 1
   8    4    5 ar
   9    4   34 1
  10    5    6 ar
  11    5   10 1
  12    6    7 ar
  13    6   35 1
  14    7   36 1
  15    9   37 1
  16   10   13 1
  17   10   32 1
  18   10   38 1
  19   11   12 am
  20   11   20 1
  21   11   39 1
  22   12   13 am
  23   12   31 2
  24   13   14 am
  25   14   15 1
  26   14   30 2
  27   15   16 ar
  28   15   20 ar
  29   16   17 ar
  30   16   40 1
  31   17   18 ar
  32   17   21 1
  33   18   19 ar
  34   18   41 1
  35   19   20 ar
  36   19   42 1
  37   21   22 3
  38   22   23 1
  39   23   24 1
  40   23   43 1
  41   23   44 1
  42   24   25 ar
  43   24   29 ar
  44   25   26 ar
  45   25   45 1
  46   26   27 ar
  47   26   46 1
  48   27   28 ar
  49   27   47 1
  50   28   29 ar
  51   28   48 1
  52   29   49 1
  53   32   50 1
  54   32   51 1
  55   32   52 1

#	End of record

