#	Name: ASD01202023
#	Creating user name:	WinNT
#	Creation time:	15. 06. 2019 19:09

#	Modifying user name:	WinNT
#	Modification time:	15. 06. 2019 19:09

#	Program:	/corina/corina34_cracker 3.40 0067  02.08.2006

@<TRIPOS>MOLECULE
ASD01202023
  41   44    0    0    0
SMALL
NO_CHARGES


@<TRIPOS>ATOM
   1 C1             0.6577     1.5806    -0.5010 C.2     
   2 C2             0.4830     0.2054    -0.3585 C.2     
   3 C3             1.9632     1.9705    -0.5702 C.2     
   4 C4            -0.4669     2.5279    -0.5763 C.2     
   5 C5             1.6381    -0.4835    -0.3157 C.2     
   6 S6             2.9983     0.6191    -0.4580 S.3     
   7 O7            -1.6110     2.1198    -0.5141 O.2     
   8 N8            -0.2285     3.8472    -0.7142 N.am    
   9 C9             1.7461    -1.9466    -0.1714 C.ar    
  10 C10           -1.2895     4.7410    -0.7854 C.2     
  11 S11           -2.9392     4.3086    -0.7040 S.3     
  12 N12           -1.1714     6.0183    -0.9168 N.2     
  13 C13           -3.4039     6.0039    -0.8715 C.2     
  14 C14           -2.2942     6.7427    -0.9694 C.2     
  15 H15            0.6839     4.1727    -0.7638 H       
  16 C16            2.4738    -2.5037     0.9026 C.ar    
  17 C17            2.5652    -3.8945     1.0240 C.ar    
  18 C18            1.9479    -4.7077     0.0996 C.ar    
  19 C19            1.2336    -4.1591    -0.9553 C.ar    
  20 C20            1.1251    -2.7915    -1.0919 C.ar    
  21 C21            3.1289    -1.6314     1.8829 C.2     
  22 C22           -2.6677     8.2151    -1.1179 C.3     
  23 C23           -4.1348     8.3057    -0.6521 C.3     
  24 C24           -4.6432     6.8775    -0.9345 C.3     
  25 C25            4.0235    -2.2249     2.9405 C.3     
  26 O26            2.9508    -0.4320     1.8423 O.2     
  27 H27           -0.4876    -0.2632    -0.2891 H       
  28 H28            2.2952     2.9922    -0.6810 H       
  29 H29            3.1199    -4.3302     1.8419 H       
  30 H30            2.0207    -5.7809     0.1967 H       
  31 H31            0.7548    -4.8086    -1.6731 H       
  32 H32            0.5668    -2.3739    -1.9167 H       
  33 H33           -2.0307     8.8329    -0.4849 H       
  34 H34           -2.5815     8.5244    -2.1596 H       
  35 H35           -4.1930     8.5349     0.4120 H       
  36 H36           -4.6859     9.0407    -1.2388 H       
  37 H37           -5.0915     6.8236    -1.9265 H       
  38 H38           -5.3634     6.5739    -0.1747 H       
  39 H39            4.0612    -3.3074     2.8188 H       
  40 H40            5.0276    -1.8127     2.8403 H       
  41 H41            3.6286    -1.9838     3.9275 H       
@<TRIPOS>BOND
   1    1    2 1
   2    1    3 2
   3    1    4 1
   4    2    5 2
   5    2   27 1
   6    3    6 1
   7    3   28 1
   8    4    7 2
   9    4    8 am
  10    5    9 1
  11    5    6 1
  12    8   15 1
  13    8   10 1
  14    9   16 ar
  15    9   20 ar
  16   10   12 2
  17   10   11 1
  18   11   13 1
  19   12   14 1
  20   13   14 2
  21   13   24 1
  22   14   22 1
  23   16   17 ar
  24   16   21 1
  25   17   18 ar
  26   17   29 1
  27   18   19 ar
  28   18   30 1
  29   19   20 ar
  30   19   31 1
  31   20   32 1
  32   21   25 1
  33   21   26 2
  34   22   23 1
  35   22   33 1
  36   22   34 1
  37   23   24 1
  38   23   35 1
  39   23   36 1
  40   24   37 1
  41   24   38 1
  42   25   39 1
  43   25   40 1
  44   25   41 1

#	End of record

