#	Name: ASD01001119
#	Creating user name:	WinNT
#	Creation time:	15. 06. 2019 18:55

#	Modifying user name:	WinNT
#	Modification time:	15. 06. 2019 18:55

#	Program:	/corina/corina34_cracker 3.40 0067  02.08.2006

@<TRIPOS>MOLECULE
ASD01001119
  39   41    0    0    0
SMALL
NO_CHARGES


@<TRIPOS>ATOM
   1 C1            -0.0161     1.3335     0.0094 C.2     
   2 C2             0.0021    -0.0041     0.0020 C.2     
   3 C3            -1.3327    -0.5758     0.0113 C.2     
   4 C4            -2.3252     0.3659     0.0259 C.2     
   5 S5            -1.6656     1.9354     0.0208 S.3     
   6 N6            -3.6802     0.0815     0.0363 N.am    
   7 C7            -4.5794     1.0854     0.0504 C.2     
   8 C8            -1.5908    -2.0169     0.0057 C.2     
   9 O9            -1.6882    -2.6214     1.0568 O.2     
  10 C10           -6.0133     0.7844     0.0615 C.2     
  11 C11            1.2251     2.2053     0.0022 C.3     
  12 C12            2.4301     1.3494     0.4015 C.3     
  13 C13            2.4401     0.0741    -0.4466 C.3     
  14 C14            1.2809    -0.8263    -0.0135 C.3     
  15 C15           -7.0180     1.7111     0.0760 C.2     
  16 C16           -8.2735     1.1515     0.0831 C.2     
  17 C17           -8.2988    -0.1865     0.0747 C.2     
  18 S18           -6.7175    -0.8267     0.0505 S.3     
  19 O19           -4.2003     2.2419     0.0539 O.2     
  20 O20           -1.7207    -2.6742    -1.1650 O.3     
  21 C21           -2.0920    -4.6697    -2.5105 C.3     
  22 C22           -1.9756    -4.1019    -1.0945 C.3     
  23 H23           -3.9824    -0.8402     0.0335 H       
  24 H24            1.3805     2.6116    -0.9972 H       
  25 H25            1.1033     3.0204     0.7156 H       
  26 H26            3.3488     1.9097     0.2283 H       
  27 H27            2.3561     1.0851     1.4564 H       
  28 H28            2.3253     0.3354    -1.4986 H       
  29 H29            3.3837    -0.4522    -0.3020 H       
  30 H30            1.4759    -1.2183     0.9847 H       
  31 H31            1.1759    -1.6513    -0.7181 H       
  32 H32           -6.8429     2.7768     0.0817 H       
  33 H33           -9.1738     1.7480     0.0950 H       
  34 H34           -9.2001    -0.7817     0.0785 H       
  35 H35           -2.9137    -4.1792    -3.0322 H       
  36 H36           -1.1617    -4.4929    -3.0504 H       
  37 H37           -2.2833    -5.7415    -2.4576 H       
  38 H38           -1.1539    -4.5925    -0.5728 H       
  39 H39           -2.9059    -4.2787    -0.5546 H       
@<TRIPOS>BOND
   1    1    2 2
   2    1   11 1
   3    1    5 1
   4    2    3 1
   5    2   14 1
   6    3    4 2
   7    3    8 1
   8    4    5 1
   9    4    6 1
  10    6    7 am
  11    6   23 1
  12    7   10 1
  13    7   19 2
  14    8    9 2
  15    8   20 1
  16   10   15 2
  17   10   18 1
  18   11   12 1
  19   11   24 1
  20   11   25 1
  21   12   13 1
  22   12   26 1
  23   12   27 1
  24   13   14 1
  25   13   28 1
  26   13   29 1
  27   14   30 1
  28   14   31 1
  29   15   16 1
  30   15   32 1
  31   16   17 2
  32   16   33 1
  33   17   18 1
  34   17   34 1
  35   20   22 1
  36   21   22 1
  37   21   35 1
  38   21   36 1
  39   21   37 1
  40   22   38 1
  41   22   39 1

#	End of record

