#	Name: ASD01940084
#	Creating user name:	WinNT
#	Creation time:	15. 06. 2019 20:11

#	Modifying user name:	WinNT
#	Modification time:	15. 06. 2019 20:11

#	Program:	/corina/corina34_cracker 3.40 0067  02.08.2006

@<TRIPOS>MOLECULE
ASD01940084
  32   33    0    0    0
SMALL
NO_CHARGES


@<TRIPOS>ATOM
   1 Br1            2.7879    -4.3917    -1.5773 Br      
   2 F2             1.9021     1.6007     2.2860 F       
   3 C3             1.0633     2.1519     1.3817 C.ar    
   4 C4             1.3879     2.1343     0.0317 C.ar    
   5 C5             0.5193     2.7044    -0.8975 C.ar    
   6 C6            -0.6647     3.2864    -0.4699 C.ar    
   7 C7            -0.9828     3.3010     0.8757 C.ar    
   8 C8            -0.1244     2.7303     1.8000 C.ar    
   9 N9             2.5861     1.5453    -0.3954 N.pl3   
  10 N10            0.8420     2.6900    -2.2611 N.am    
  11 C11            2.6330     0.1753    -0.6680 C.ar    
  12 C12            1.4777    -0.5908    -0.5844 C.ar    
  13 C13            1.5270    -1.9446    -0.8549 C.ar    
  14 C14            2.7255    -2.5380    -1.2085 C.ar    
  15 C15            3.8791    -1.7781    -1.2926 C.ar    
  16 C16            3.8354    -0.4225    -1.0293 C.ar    
  17 Cl17           5.2825     0.5305    -1.1349 Cl      
  18 F18           -0.4428     2.7423     3.1129 F       
  19 S19            0.4253     3.9710    -3.2242 S.o2    
  20 O20            0.9907     3.6567    -4.4894 O.2     
  21 O21           -0.9811     4.0903    -3.0595 O.2     
  22 C22            1.2758     5.3909    -2.4819 C.3     
  23 Cl23           0.9105     6.8764    -3.4361 Cl      
  24 H24           -1.3387     3.7289    -1.1885 H       
  25 H25           -1.9054     3.7548     1.2061 H       
  26 H26            3.3826     2.0886    -0.5017 H       
  27 H27            1.3095     1.9296    -2.6408 H       
  28 H28            0.5416    -0.1286    -0.3077 H       
  29 H29            0.6286    -2.5406    -0.7899 H       
  30 H30            4.8134    -2.2442    -1.5686 H       
  31 H31            0.9324     5.5245    -1.4560 H       
  32 H32            2.3511     5.2125    -2.4848 H       
@<TRIPOS>BOND
   1    1   14 1
   2    2    3 1
   3    3    4 ar
   4    3    8 ar
   5    4    5 ar
   6    4    9 1
   7    5    6 ar
   8    5   10 1
   9    6    7 ar
  10    6   24 1
  11    7    8 ar
  12    7   25 1
  13    8   18 1
  14    9   11 1
  15    9   26 1
  16   10   19 am
  17   10   27 1
  18   11   12 ar
  19   11   16 ar
  20   12   13 ar
  21   12   28 1
  22   13   14 ar
  23   13   29 1
  24   14   15 ar
  25   15   16 ar
  26   15   30 1
  27   16   17 1
  28   19   20 2
  29   19   21 2
  30   19   22 1
  31   22   23 1
  32   22   31 1
  33   22   32 1

#	End of record

