#	Name: ASD01148320
#	Creating user name:	WinNT
#	Creation time:	15. 06. 2019 19:02

#	Modifying user name:	WinNT
#	Modification time:	15. 06. 2019 19:02

#	Program:	/corina/corina34_cracker 3.40 0067  02.08.2006

@<TRIPOS>MOLECULE
ASD01148320
  51   54    0    0    0
SMALL
NO_CHARGES


@<TRIPOS>ATOM
   1 C1            -0.0167     1.3793     0.0096 C.ar    
   2 C2             0.0021    -0.0041     0.0020 C.ar    
   3 C3            -1.1869    -0.7115     0.0095 C.ar    
   4 C4            -2.3926    -0.0360     0.0246 C.ar    
   5 C5            -2.4107     1.3463     0.0322 C.ar    
   6 C6            -1.2230     2.0537     0.0305 C.ar    
   7 C7            -3.7257     2.0823     0.0482 C.3     
   8 O8            -4.7306     1.3282     0.7560 O.3     
   9 C9            -3.6316     3.3658     0.9073 C.3     
  10 C10           -4.1228     2.8923     2.2621 C.2     
  11 N11           -4.7174     1.7576     2.1030 N.2     
  12 C12           -3.9500     3.6061     3.5425 C.ar    
  13 C13           -4.4541     3.0549     4.7233 C.ar    
  14 C14           -3.2771     4.8302     3.5747 C.ar    
  15 C15           -3.1159     5.4958     4.7687 C.ar    
  16 C16           -3.6251     4.9474     5.9485 C.ar    
  17 C17           -4.2929     3.7205     5.9173 C.ar    
  18 C18           -3.4521     5.6618     7.2301 C.2     
  19 O19           -2.8668     6.7267     7.2580 O.2     
  20 N20           -3.9433     5.1328     8.3682 N.am    
  21 C21           -4.1855     2.4070    -1.3745 C.3     
  22 F22           -4.3278     1.2200    -2.1010 F       
  23 F23           -5.4141     3.0746    -1.3265 F       
  24 F24           -3.2351     3.2236    -1.9968 F       
  25 Cl25           1.5169    -0.8519    -0.0175 Cl      
  26 C26           -3.7808     5.8041     9.5725 C.ar    
  27 N27           -4.2697     5.2699    10.6812 N.ar    
  28 N28           -3.1358     6.9606     9.5856 N.ar    
  29 C29           -2.9634     7.6260    10.7157 C.ar    
  30 C30           -3.4673     7.0985    11.8943 C.ar    
  31 C31           -4.1322     5.8832    11.8450 C.ar    
  32 C32            1.2779     2.1506     0.0014 C.3     
  33 F33            1.0035     3.5224     0.0114 F       
  34 F34            2.0270     1.8166     1.1348 F       
  35 F35            2.0051     1.8289    -1.1496 F       
  36 C36           -1.1673    -2.2184     0.0007 C.3     
  37 F37           -2.4801    -2.7018     0.0107 F       
  38 F38           -0.5129    -2.6695    -1.1505 F       
  39 F39           -0.4908    -2.6826     1.1339 F       
  40 H40           -3.3208    -0.5881     0.0301 H       
  41 H41           -1.2377     3.1336     0.0364 H       
  42 H42           -2.6009     3.7149     0.9698 H       
  43 H43           -4.2820     4.1454     0.5107 H       
  44 H44           -4.9707     2.1067     4.6991 H       
  45 H45           -2.8832     5.2540     2.6627 H       
  46 H46           -2.5955     6.4418     4.7936 H       
  47 H47           -4.6866     3.2966     6.8293 H       
  48 H48           -4.4104     4.2829     8.3459 H       
  49 H49           -2.4362     8.5686    10.7201 H       
  50 H50           -3.3405     7.6206    12.8312 H       
  51 H51           -4.5372     5.4448    12.7451 H       
@<TRIPOS>BOND
   1    1    2 ar
   2    1   32 1
   3    1    6 ar
   4    2    3 ar
   5    2   25 1
   6    3    4 ar
   7    3   36 1
   8    4    5 ar
   9    4   40 1
  10    5    6 ar
  11    5    7 1
  12    6   41 1
  13    7    8 1
  14    7    9 1
  15    7   21 1
  16    8   11 1
  17    9   10 1
  18    9   42 1
  19    9   43 1
  20   10   11 2
  21   10   12 1
  22   12   13 ar
  23   12   14 ar
  24   13   17 ar
  25   13   44 1
  26   14   15 ar
  27   14   45 1
  28   15   16 ar
  29   15   46 1
  30   16   17 ar
  31   16   18 1
  32   17   47 1
  33   18   19 2
  34   18   20 am
  35   20   26 1
  36   20   48 1
  37   21   22 1
  38   21   23 1
  39   21   24 1
  40   26   27 ar
  41   26   28 ar
  42   27   31 ar
  43   28   29 ar
  44   29   30 ar
  45   29   49 1
  46   30   31 ar
  47   30   50 1
  48   31   51 1
  49   32   33 1
  50   32   34 1
  51   32   35 1
  52   36   37 1
  53   36   38 1
  54   36   39 1

#	End of record

