#	Name: ASD01148734
#	Creating user name:	WinNT
#	Creation time:	15. 06. 2019 19:03

#	Modifying user name:	WinNT
#	Modification time:	15. 06. 2019 19:03

#	Program:	/corina/corina34_cracker 3.40 0067  02.08.2006

@<TRIPOS>MOLECULE
ASD01148734
  50   53    0    0    0
SMALL
NO_CHARGES


@<TRIPOS>ATOM
   1 C1            -0.4375     0.8134    -0.3014 C.ar    
   2 C2            -0.2707    -0.5506    -0.1472 C.ar    
   3 C3             0.9993    -1.0892    -0.0801 C.ar    
   4 C4             2.1093    -0.2596    -0.1680 C.ar    
   5 C5             1.9385     1.1096    -0.3233 C.ar    
   6 C6             0.6659     1.6423    -0.3894 C.ar    
   7 S7            -2.0593     1.4960    -0.3934 S.o2    
   8 O8            -1.9351     2.7346    -1.0787 O.2     
   9 O9            -2.9118     0.4472    -0.8321 O.2     
  10 N10           -2.5256     1.8618     1.1529 N.am    
  11 N11            3.3988    -0.8029    -0.0998 N.pl3   
  12 C12            3.9579    -1.6077    -1.0277 C.2     
  13 C13            5.2318    -1.9326    -0.6060 C.2     
  14 C14            5.4340    -1.2826     0.6400 C.2     
  15 C15            4.2978    -0.5955     0.9208 C.2     
  16 C16            3.3045    -2.0717    -2.3039 C.3     
  17 C17            4.0643     0.2341     2.1226 C.ar    
  18 C18            2.7619     0.5246     2.5311 C.ar    
  19 C19            2.5503     1.2990     3.6529 C.ar    
  20 C20            3.6271     1.7879     4.3732 C.ar    
  21 C21            4.9217     1.5030     3.9727 C.ar    
  22 C22            5.1455     0.7248     2.8559 C.ar    
  23 Cl23           3.3531     2.7622     5.7836 Cl      
  24 C24            6.1965    -2.7901    -1.3133 C.2     
  25 C25            7.5704    -2.9431    -0.7912 C.ar    
  26 C26            8.2937    -4.1092    -1.0518 C.ar    
  27 C27            9.5752    -4.2460    -0.5620 C.ar    
  28 C28           10.1456    -3.2300     0.1873 C.ar    
  29 C29            9.4333    -2.0710     0.4491 C.ar    
  30 C30            8.1531    -1.9199    -0.0401 C.ar    
  31 O31            5.8628    -3.3728    -2.3275 O.2     
  32 Cl32          11.7595    -3.4100     0.8010 Cl      
  33 H33           -1.1344    -1.1953    -0.0788 H       
  34 H34            1.1290    -2.1545     0.0411 H       
  35 H35            2.7999     1.7575    -0.3917 H       
  36 H36            0.5324     2.7072    -0.5102 H       
  37 H37           -1.9260     1.6857     1.8948 H       
  38 H38           -3.3984     2.2521     1.3168 H       
  39 H39            6.3255    -1.3244     1.2482 H       
  40 H40            3.5192    -1.3604    -3.1015 H       
  41 H41            3.6953    -3.0521    -2.5766 H       
  42 H42            2.2266    -2.1383    -2.1569 H       
  43 H43            1.9213     0.1441     1.9699 H       
  44 H44            1.5428     1.5247     3.9698 H       
  45 H45            5.7577     1.8870     4.5384 H       
  46 H46            6.1556     0.4995     2.5470 H       
  47 H47            7.8499    -4.9022    -1.6355 H       
  48 H48           10.1354    -5.1474    -0.7625 H       
  49 H49            9.8834    -1.2824     1.0338 H       
  50 H50            7.6004    -1.0141     0.1609 H       
@<TRIPOS>BOND
   1    1    2 ar
   2    1    6 ar
   3    1    7 1
   4    2    3 ar
   5    2   33 1
   6    3    4 ar
   7    3   34 1
   8    4    5 ar
   9    4   11 1
  10    5    6 ar
  11    5   35 1
  12    6   36 1
  13    7    8 2
  14    7    9 2
  15    7   10 am
  16   10   37 1
  17   10   38 1
  18   11   12 1
  19   11   15 1
  20   12   13 2
  21   12   16 1
  22   13   14 1
  23   13   24 1
  24   14   15 2
  25   14   39 1
  26   15   17 1
  27   16   40 1
  28   16   41 1
  29   16   42 1
  30   17   18 ar
  31   17   22 ar
  32   18   19 ar
  33   18   43 1
  34   19   20 ar
  35   19   44 1
  36   20   21 ar
  37   20   23 1
  38   21   22 ar
  39   21   45 1
  40   22   46 1
  41   24   25 1
  42   24   31 2
  43   25   26 ar
  44   25   30 ar
  45   26   27 ar
  46   26   47 1
  47   27   28 ar
  48   27   48 1
  49   28   29 ar
  50   28   32 1
  51   29   30 ar
  52   29   49 1
  53   30   50 1

#	End of record

