#	Name: ASD01230395
#	Creating user name:	WinNT
#	Creation time:	15. 06. 2019 19:14

#	Modifying user name:	WinNT
#	Modification time:	15. 06. 2019 19:14

#	Program:	/corina/corina34_cracker 3.40 0067  02.08.2006

@<TRIPOS>MOLECULE
ASD01230395
  52   55    0    0    0
SMALL
NO_CHARGES


@<TRIPOS>ATOM
   1 S1            -1.6219     2.7529     1.5547 S.o2    
   2 N2            -1.3530     1.2759     0.8762 N.am    
   3 C3            -0.2283     0.8825     0.4271 C.2     
   4 N4             0.9279     1.6186     0.4818 N.pl3   
   5 C5             1.1086     2.6851     1.4603 C.3     
   6 C6            -0.0656     3.6619     1.3700 C.3     
   7 C7            -0.0965    -0.4909    -0.2110 C.3     
   8 C8             1.2809    -1.0397     0.1694 C.3     
   9 C9             2.3963    -0.1590    -0.3775 C.3     
  10 C10            1.9792     1.3023    -0.4908 C.3     
  11 C11            3.6072    -0.2580     0.5525 C.3     
  12 C12           -1.1747    -1.4047     0.3117 C.ar    
  13 C13           -2.0850    -1.9691    -0.5628 C.ar    
  14 C14           -3.0740    -2.8074    -0.0863 C.ar    
  15 C15           -3.1536    -3.0830     1.2713 C.ar    
  16 C16           -2.2389    -2.5153     2.1468 C.ar    
  17 C17           -1.2486    -1.6818     1.6644 C.ar    
  18 O18           -4.1258    -3.9070     1.7427 O.3     
  19 C19           -4.9319    -4.5249     0.8394 C.ar    
  20 C20           -4.5685    -5.7557     0.3131 C.ar    
  21 C21           -5.3919    -6.3840    -0.6072 C.ar    
  22 C22           -6.5799    -5.7799    -1.0008 C.ar    
  23 C23           -6.9393    -4.5525    -0.4745 C.ar    
  24 C24           -6.1212    -3.9275     0.4480 C.ar    
  25 O25           -5.0378    -7.5901    -1.1250 O.3     
  26 C26           -3.8031    -8.1518    -0.6756 C.3     
  27 F27           -7.3836    -6.3915    -1.8980 F       
  28 O28           -2.6326     3.3300     0.7394 O.2     
  29 O29           -1.8685     2.4655     2.9243 O.2     
  30 H30            1.1489     2.2566     2.4617 H       
  31 H31            2.0387     3.2145     1.2534 H       
  32 H32           -0.0491     4.1613     0.4013 H       
  33 H33            0.0178     4.4047     2.1634 H       
  34 H34           -0.1750    -0.4052    -1.2948 H       
  35 H35            1.3604    -1.0832     1.2556 H       
  36 H36            1.3889    -2.0457    -0.2361 H       
  37 H37            2.6812    -0.5224    -1.3649 H       
  38 H38            1.6060     1.4921    -1.4972 H       
  39 H39            2.8445     1.9382    -0.3037 H       
  40 H40            3.9450    -1.2933     0.6002 H       
  41 H41            4.4119     0.3695     0.1694 H       
  42 H42            3.3273     0.0792     1.5505 H       
  43 H43           -2.0228    -1.7540    -1.6194 H       
  44 H44           -3.7849    -3.2477    -0.7698 H       
  45 H45           -2.2989    -2.7280     3.2040 H       
  46 H46           -0.5339    -1.2430     2.3448 H       
  47 H47           -3.6447    -6.2234     0.6199 H       
  48 H48           -7.8627    -4.0837    -0.7814 H       
  49 H49           -6.4059    -2.9711     0.8611 H       
  50 H50           -3.8413    -8.2964     0.4041 H       
  51 H51           -3.6412    -9.1121    -1.1653 H       
  52 H52           -2.9849    -7.4754    -0.9228 H       
@<TRIPOS>BOND
   1    1    2 am
   2    1    6 1
   3    1   28 2
   4    1   29 2
   5    2    3 2
   6    3    4 1
   7    3    7 1
   8    4    5 1
   9    4   10 1
  10    5    6 1
  11    5   30 1
  12    5   31 1
  13    6   32 1
  14    6   33 1
  15    7    8 1
  16    7   12 1
  17    7   34 1
  18    8    9 1
  19    8   35 1
  20    8   36 1
  21    9   10 1
  22    9   11 1
  23    9   37 1
  24   10   38 1
  25   10   39 1
  26   11   40 1
  27   11   41 1
  28   11   42 1
  29   12   13 ar
  30   12   17 ar
  31   13   14 ar
  32   13   43 1
  33   14   15 ar
  34   14   44 1
  35   15   16 ar
  36   15   18 1
  37   16   17 ar
  38   16   45 1
  39   17   46 1
  40   18   19 1
  41   19   20 ar
  42   19   24 ar
  43   20   21 ar
  44   20   47 1
  45   21   22 ar
  46   21   25 1
  47   22   23 ar
  48   22   27 1
  49   23   24 ar
  50   23   48 1
  51   24   49 1
  52   25   26 1
  53   26   50 1
  54   26   51 1
  55   26   52 1

#	End of record

