#	Name: ASD01811584
#	Creating user name:	WinNT
#	Creation time:	15. 06. 2019 19:27

#	Modifying user name:	WinNT
#	Modification time:	15. 06. 2019 19:27

#	Program:	/corina/corina34_cracker 3.40 0067  02.08.2006

@<TRIPOS>MOLECULE
ASD01811584
  61   65    0    0    0
SMALL
NO_CHARGES


@<TRIPOS>ATOM
   1 C1            -8.0265     2.1682     2.3307 C.1     
   2 C2            -6.8596     2.9698     2.1153 C.ar    
   3 C3            -5.6097     2.5182     2.5437 C.ar    
   4 C4            -4.4897     3.2955     2.3330 C.ar    
   5 C5            -4.6029     4.5202     1.6992 C.ar    
   6 C6            -5.8383     4.9739     1.2725 C.ar    
   7 C7            -6.9656     4.2039     1.4707 C.ar    
   8 N8            -8.9522     1.5324     2.5016 N.1     
   9 N9            -1.9287     7.7947     1.4834 N.am    
  10 C10           -2.4295     7.2920     0.1968 C.3     
  11 C11           -3.6893     6.4580     0.4501 C.3     
  12 C12           -3.3749     5.3639     1.4730 C.3     
  13 C13           -2.9473     6.0065     2.7945 C.3     
  14 C14           -1.6791     6.8354     2.5679 C.3     
  15 F15           -2.3382     4.5582     0.9899 F       
  16 C16           -1.6973     9.1102     1.6635 C.2     
  17 C17           -1.2835     9.6127     2.9898 C.ar    
  18 C18           -2.0180    10.6238     3.6155 C.ar    
  19 C19           -1.6340    11.0947     4.8535 C.ar    
  20 C20           -0.5196    10.5695     5.4849 C.ar    
  21 C21            0.2237     9.5571     4.8688 C.ar    
  22 C22           -0.1634     9.0751     3.6214 C.ar    
  23 O23           -1.8292     9.8833     0.7346 O.2     
  24 C24            1.4145     8.9965     5.5432 C.2     
  25 N25            1.8947     9.3774     6.7658 N.pl3   
  26 C26            2.9942     8.6170     7.0103 C.2     
  27 C27            3.1625     7.7976     5.9437 C.2     
  28 N28            2.1896     8.0410     5.0707 N.2     
  29 C29            3.9080     8.6159     8.2084 C.3     
  30 C30            4.2942     6.8022     5.8519 C.3     
  31 C31            5.3412     7.1857     6.9077 C.3     
  32 O32            4.6966     7.4185     8.1628 O.3     
  33 F33           -0.1491    11.0355     6.6976 F       
  34 C34           -3.2325    11.2014     2.9353 C.3     
  35 C35           -4.4244    10.2637     3.1375 C.3     
  36 H36           -5.5201     1.5628     3.0393 H       
  37 H37           -3.5223     2.9474     2.6639 H       
  38 H38           -5.9196     5.9310     0.7787 H       
  39 H39           -7.9287     4.5570     1.1328 H       
  40 H40           -2.6721     8.1318    -0.4542 H       
  41 H41           -1.6681     6.6701    -0.2739 H       
  42 H42           -4.4798     7.1012     0.8367 H       
  43 H43           -4.0162     6.0000    -0.4835 H       
  44 H44           -3.7448     6.6539     3.1591 H       
  45 H45           -2.7460     5.2272     3.5296 H       
  46 H46           -0.8564     6.1763     2.2905 H       
  47 H47           -1.4265     7.3740     3.4812 H       
  48 H48           -2.2047    11.8767     5.3322 H       
  49 H49            0.4043     8.2906     3.1433 H       
  50 H50            1.5224    10.0594     7.3465 H       
  51 H51            4.5605     9.4883     8.1749 H       
  52 H52            3.3160     8.6326     9.1235 H       
  53 H53            3.9199     5.7980     6.0506 H       
  54 H54            4.7404     6.8409     4.8581 H       
  55 H55            6.0620     6.3750     7.0149 H       
  56 H56            5.8593     8.0914     6.5924 H       
  57 H57           -3.4604    12.1766     3.3654 H       
  58 H58           -3.0338    11.3118     1.8693 H       
  59 H59           -4.1965     9.2884     2.7074 H       
  60 H60           -4.6231    10.1532     4.2035 H       
  61 H61           -5.3028    10.6814     2.6455 H       
@<TRIPOS>BOND
   1    1    2 1
   2    1    8 3
   3    2    3 ar
   4    2    7 ar
   5    3    4 ar
   6    3   36 1
   7    4    5 ar
   8    4   37 1
   9    5    6 ar
  10    5   12 1
  11    6    7 ar
  12    6   38 1
  13    7   39 1
  14    9   10 1
  15    9   14 1
  16    9   16 am
  17   10   11 1
  18   10   40 1
  19   10   41 1
  20   11   12 1
  21   11   42 1
  22   11   43 1
  23   12   13 1
  24   12   15 1
  25   13   14 1
  26   13   44 1
  27   13   45 1
  28   14   46 1
  29   14   47 1
  30   16   17 1
  31   16   23 2
  32   17   18 ar
  33   17   22 ar
  34   18   19 ar
  35   18   34 1
  36   19   20 ar
  37   19   48 1
  38   20   21 ar
  39   20   33 1
  40   21   22 ar
  41   21   24 1
  42   22   49 1
  43   24   25 1
  44   24   28 2
  45   25   26 1
  46   25   50 1
  47   26   27 2
  48   26   29 1
  49   27   28 1
  50   27   30 1
  51   29   32 1
  52   29   51 1
  53   29   52 1
  54   30   31 1
  55   30   53 1
  56   30   54 1
  57   31   32 1
  58   31   55 1
  59   31   56 1
  60   34   35 1
  61   34   57 1
  62   34   58 1
  63   35   59 1
  64   35   60 1
  65   35   61 1

#	End of record

