#	Name: ASD01915041
#	Creating user name:	WinNT
#	Creation time:	15. 06. 2019 20:04

#	Modifying user name:	WinNT
#	Modification time:	15. 06. 2019 20:04

#	Program:	/corina/corina34_cracker 3.40 0067  02.08.2006

@<TRIPOS>MOLECULE
ASD01915041
  28   30    0    0    0
SMALL
NO_CHARGES


@<TRIPOS>ATOM
   1 C1            -0.0180     1.4736     0.0101 C.2     
   2 C2             0.0021    -0.0041     0.0020 C.ar    
   3 C3             1.2175    -0.6997    -0.0133 C.ar    
   4 C4             1.1813    -2.0827    -0.0205 C.ar    
   5 C5            -0.0424    -2.7282    -0.0123 C.ar    
   6 N6            -1.1719    -2.0467     0.0022 N.ar    
   7 C7            -1.1897    -0.7299     0.0153 C.ar    
   8 O8             1.0263     2.0956     0.0035 O.2     
   9 N9            -1.1942     2.1316     0.0193 N.am    
  10 C10           -1.2130     3.5149     0.0269 C.2     
  11 N11           -0.1061     4.3141     0.0260 N.pl3   
  12 C12           -0.5471     5.6263     0.0352 C.ar    
  13 C13           -1.9509     5.5662     0.0416 C.ar    
  14 N14           -2.2945     4.2519     0.0304 N.2     
  15 C15           -2.6898     6.7517     0.0519 C.ar    
  16 C16           -2.0371     7.9642     0.0558 C.ar    
  17 C17           -0.6513     8.0178     0.0491 C.ar    
  18 C18            0.0931     6.8561     0.0389 C.ar    
  19 H19            2.1588    -0.1701    -0.0198 H       
  20 H20            2.0987    -2.6525    -0.0326 H       
  21 H21           -0.0735    -3.8077    -0.0182 H       
  22 H22           -2.1347    -0.2074     0.0320 H       
  23 H23           -2.0276     1.6352     0.0206 H       
  24 H24            0.8175     4.0176     0.0205 H       
  25 H25           -3.7692     6.7174     0.0565 H       
  26 H26           -2.6088     8.8805     0.0638 H       
  27 H27           -0.1515     8.9752     0.0515 H       
  28 H28            1.1720     6.9047     0.0338 H       
@<TRIPOS>BOND
   1    1    2 1
   2    1    8 2
   3    1    9 am
   4    2    3 ar
   5    2    7 ar
   6    3    4 ar
   7    3   19 1
   8    4    5 ar
   9    4   20 1
  10    5    6 ar
  11    5   21 1
  12    6    7 ar
  13    7   22 1
  14    9   10 1
  15    9   23 1
  16   10   11 1
  17   10   14 2
  18   11   12 1
  19   11   24 1
  20   12   13 ar
  21   12   18 ar
  22   13   14 1
  23   13   15 ar
  24   15   16 ar
  25   15   25 1
  26   16   17 ar
  27   16   26 1
  28   17   18 ar
  29   17   27 1
  30   18   28 1

#	End of record

