#	Name: ASD03080218
#	Creating user name:	WinNT
#	Creation time:	15. 06. 2019 20:26

#	Modifying user name:	WinNT
#	Modification time:	15. 06. 2019 20:26

#	Program:	/corina/corina34_cracker 3.40 0067  02.08.2006

@<TRIPOS>MOLECULE
ASD03080218
  41   42    0    0    0
SMALL
NO_CHARGES


@<TRIPOS>ATOM
   1 C1            -0.1211     1.3946    -0.0888 C.ar    
   2 C2            -0.0944     0.0530     0.2585 C.ar    
   3 C3             1.1018    -0.5499     0.6071 C.ar    
   4 C4             2.2737     0.1774     0.6117 C.ar    
   5 C5             1.0423     2.1272    -0.0869 C.ar    
   6 C6             1.3561     3.5688    -0.4053 C.3     
   7 C7             2.2555     1.5300     0.2630 C.ar    
   8 C8             3.3266     2.5400     0.1785 C.2     
   9 C9             2.8462     3.7115    -0.2000 C.2     
  10 Br10          -1.6945    -0.9548     0.2567 Br      
  11 C11            3.6470     4.9734    -0.3929 C.3     
  12 C12            4.6182     4.7832    -1.5294 C.2     
  13 C13            2.7024     6.1323    -0.7180 C.3     
  14 C14            4.4187     5.2889     0.8900 C.3     
  15 C15            4.4896     5.4883    -2.6259 C.2     
  16 C16            4.7777     2.2716     0.4836 C.3     
  17 C17            5.0108     2.3830     1.9917 C.3     
  18 N18            6.4401     2.2055     2.2807 N.3     
  19 C19            6.7022     2.3064     3.7226 C.3     
  20 H20           -1.0542     1.8630    -0.3649 H       
  21 H21            1.1175    -1.5954     0.8773 H       
  22 H22            3.2041    -0.2981     0.8849 H       
  23 H23            1.0947     3.7922    -1.4396 H       
  24 H24            0.8168     4.2307     0.2723 H       
  25 H25            5.4203     4.0655    -1.4399 H       
  26 H26            1.9999     6.2699     0.1040 H       
  27 H27            3.2816     7.0450    -0.8575 H       
  28 H28            2.1526     5.9075    -1.6319 H       
  29 H29            5.1847     4.5300     1.0492 H       
  30 H30            4.8900     6.2675     0.7991 H       
  31 H31            3.7310     5.2940     1.7357 H       
  32 H32            3.6876     6.2060    -2.7154 H       
  33 H33            5.1857     5.3520    -3.4404 H       
  34 H34            5.0399     1.2681     0.1486 H       
  35 H35            5.3991     3.0017    -0.0349 H       
  36 H36            4.6895     3.3655     2.3374 H       
  37 H37            4.4376     1.6115     2.5059 H       
  38 H38            6.7774     1.3288     1.9123 H       
  39 H39            6.3925     3.2883     4.0803 H       
  40 H40            6.1407     1.5343     4.2488 H       
  41 H41            7.7676     2.1712     3.9086 H       
@<TRIPOS>BOND
   1    1    2 ar
   2    1    5 ar
   3    1   20 1
   4    2    3 ar
   5    2   10 1
   6    3    4 ar
   7    3   21 1
   8    4    7 ar
   9    4   22 1
  10    5    7 ar
  11    5    6 1
  12    6    9 1
  13    6   23 1
  14    6   24 1
  15    7    8 1
  16    8    9 2
  17    8   16 1
  18    9   11 1
  19   11   12 1
  20   11   13 1
  21   11   14 1
  22   12   15 2
  23   12   25 1
  24   13   26 1
  25   13   27 1
  26   13   28 1
  27   14   29 1
  28   14   30 1
  29   14   31 1
  30   15   32 1
  31   15   33 1
  32   16   17 1
  33   16   34 1
  34   16   35 1
  35   17   18 1
  36   17   36 1
  37   17   37 1
  38   18   19 1
  39   18   38 1
  40   19   39 1
  41   19   40 1
  42   19   41 1

#	End of record

