#	Name: ASD01150834
#	Creating user name:	WinNT
#	Creation time:	15. 06. 2019 19:05

#	Modifying user name:	WinNT
#	Modification time:	15. 06. 2019 19:05

#	Program:	/corina/corina34_cracker 3.40 0067  02.08.2006

@<TRIPOS>MOLECULE
ASD01150834
  66   69    0    0    0
SMALL
NO_CHARGES


@<TRIPOS>ATOM
   1 C1            -0.0157     1.3101     0.0092 C.2     
   2 N2             0.0021    -0.0041     0.0020 N.2     
   3 C3             1.2642    -0.4437    -0.0124 C.2     
   4 C4             2.0962     0.6684    -0.0144 C.2     
   5 N5             1.2521     1.7788    -0.0003 N.pl3   
   6 C6             3.5070     0.6738    -0.0271 C.2     
   7 O7             4.1198    -0.3782    -0.0384 O.2     
   8 O8             4.1777     1.8458    -0.0268 O.3     
   9 O9            -1.1302     2.0752     0.0189 O.3     
  10 C10           -2.3856     1.3926     0.0220 C.3     
  11 N11            1.6707    -1.7737    -0.0230 N.am    
  12 C12            0.7515    -2.7594    -0.0196 C.2     
  13 O13           -0.4301    -2.4865    -0.0072 O.2     
  14 C14            1.1919    -4.2005    -0.0311 C.3     
  15 O15            0.0427    -5.0499    -0.0248 O.3     
  16 C16            0.3512    -6.4452    -0.0349 C.3     
  17 C17           -0.9277    -7.2424    -0.0271 C.ar    
  18 C18           -1.5253    -7.6019    -1.2207 C.ar    
  19 C19           -2.6983    -8.3331    -1.2136 C.ar    
  20 C20           -3.2736    -8.7053    -0.0129 C.ar    
  21 C21           -2.6755    -8.3466     1.1806 C.ar    
  22 C22           -1.5001    -7.6190     1.1734 C.ar    
  23 O23            2.6906     7.1029     0.2491 O.3     
  24 C24            2.5391     7.2667     1.6715 C.3     
  25 O25            1.5955     6.2418     2.0354 O.3     
  26 C26            1.7483     5.2574     1.1020 C.ar    
  27 C27            2.4218     5.7866     0.0030 C.ar    
  28 C28            1.3611     3.9283     1.0994 C.ar    
  29 C29            1.6442     3.1253     0.0027 C.ar    
  30 C30            2.3155     3.6551    -1.0904 C.ar    
  31 C31            2.7026     4.9818    -1.0889 C.ar    
  32 C32            5.6049     1.7765    -0.0401 C.3     
  33 C33            6.1843     3.1926    -0.0377 C.3     
  34 C34            6.0906     1.0246     1.2007 C.3     
  35 C35            6.0680     1.0382    -1.2976 C.3     
  36 O36            7.6115     3.1233    -0.0510 O.3     
  37 C37            8.2554     4.3990    -0.0499 C.3     
  38 H38           -3.1957     2.1219     0.0299 H       
  39 H39           -2.4640     0.7721    -0.8708 H       
  40 H40           -2.4548     0.7631     0.9091 H       
  41 H41            2.6158    -1.9920    -0.0329 H       
  42 H42            1.7812    -4.3932    -0.9276 H       
  43 H43            1.7977    -4.4024     0.8523 H       
  44 H44            0.9231    -6.6844    -0.9314 H       
  45 H45            0.9395    -6.6936     0.8484 H       
  46 H46           -1.0758    -7.3111    -2.1587 H       
  47 H47           -3.1656    -8.6134    -2.1460 H       
  48 H48           -4.1904    -9.2760    -0.0074 H       
  49 H49           -3.1251    -8.6370     2.1186 H       
  50 H50           -1.0308    -7.3420     2.1059 H       
  51 H51            3.4908     7.1086     2.1788 H       
  52 H52            2.1400     8.2542     1.9029 H       
  53 H53            0.8392     3.5160     1.9504 H       
  54 H54            2.5360     3.0298    -1.9429 H       
  55 H55            3.2247     5.3920    -1.9408 H       
  56 H56            5.8383     3.7282    -0.9217 H       
  57 H57            5.8544     3.7186     0.8582 H       
  58 H58            5.6779     0.0158     1.1990 H       
  59 H59            7.1793     0.9718     1.1906 H       
  60 H60            5.7607     1.5506     2.0966 H       
  61 H61            5.7220     1.5738    -2.1816 H       
  62 H62            7.1567     0.9854    -1.3078 H       
  63 H63            5.6552     0.0294    -1.2994 H       
  64 H64            7.9523     4.9597    -0.9341 H       
  65 H65            7.9685     4.9501     0.8457 H       
  66 H66            9.3365     4.2604    -0.0604 H       
@<TRIPOS>BOND
   1    1    2 2
   2    1    5 1
   3    1    9 1
   4    2    3 1
   5    3    4 2
   6    3   11 1
   7    4    5 1
   8    4    6 1
   9    5   29 1
  10    6    7 2
  11    6    8 1
  12    8   32 1
  13    9   10 1
  14   10   38 1
  15   10   39 1
  16   10   40 1
  17   11   12 am
  18   11   41 1
  19   12   13 2
  20   12   14 1
  21   14   15 1
  22   14   42 1
  23   14   43 1
  24   15   16 1
  25   16   17 1
  26   16   44 1
  27   16   45 1
  28   17   18 ar
  29   17   22 ar
  30   18   19 ar
  31   18   46 1
  32   19   20 ar
  33   19   47 1
  34   20   21 ar
  35   20   48 1
  36   21   22 ar
  37   21   49 1
  38   22   50 1
  39   23   24 1
  40   23   27 1
  41   24   25 1
  42   24   51 1
  43   24   52 1
  44   25   26 1
  45   26   27 ar
  46   26   28 ar
  47   27   31 ar
  48   28   29 ar
  49   28   53 1
  50   29   30 ar
  51   30   31 ar
  52   30   54 1
  53   31   55 1
  54   32   33 1
  55   32   34 1
  56   32   35 1
  57   33   36 1
  58   33   56 1
  59   33   57 1
  60   34   58 1
  61   34   59 1
  62   34   60 1
  63   35   61 1
  64   35   62 1
  65   35   63 1
  66   36   37 1
  67   37   64 1
  68   37   65 1
  69   37   66 1

#	End of record

