#	Name: ASD03180097
#	Creating user name:	WinNT
#	Creation time:	15. 06. 2019 20:33

#	Modifying user name:	WinNT
#	Modification time:	15. 06. 2019 20:33

#	Program:	/corina/corina34_cracker 3.40 0067  02.08.2006

@<TRIPOS>MOLECULE
ASD03180097
  34   37    0    0    0
SMALL
NO_CHARGES


@<TRIPOS>ATOM
   1 N1            -0.0162     1.3435     0.0094 N.2     
   2 C2             0.0021    -0.0041     0.0020 C.ar    
   3 C3             1.2972    -0.5301    -0.0132 C.ar    
   4 S4             2.4420     0.8093    -0.0169 S.3     
   5 C5             1.1146     1.9619     0.0020 C.2     
   6 N6             1.2627     3.3359     0.0079 N.pl3   
   7 C7             0.1425     4.1543     0.0230 C.2     
   8 S8            -1.5263     3.5929     0.0365 S.3     
   9 C9            -2.0913     5.2617     0.0511 C.2     
  10 C10           -1.0162     6.0716     0.0448 C.2     
  11 N11            0.1628     5.4510     0.0350 N.2     
  12 C12           -1.1352     7.5460     0.0539 C.2     
  13 N13           -0.4857     9.6882     0.0541 N.2     
  14 C14           -0.1119     8.4268     0.0430 C.2     
  15 S15           -2.6377     8.4663     0.0731 S.3     
  16 C16           -1.7533     9.9292     0.0715 C.2     
  17 C17            1.3338     8.0017     0.0207 C.3     
  18 C18           -2.3671    11.3055     0.0863 C.3     
  19 C19            1.4982    -1.9082    -0.0221 C.ar    
  20 C20            0.4205    -2.7655    -0.0160 C.ar    
  21 C21           -0.8700    -2.2567    -0.0009 C.ar    
  22 C22           -1.0865    -0.9020     0.0080 C.ar    
  23 H23            2.1499     3.7281     0.0016 H       
  24 H24           -3.1232     5.5801     0.0626 H       
  25 H25            1.6969     7.8950     1.0429 H       
  26 H26            1.4239     7.0475    -0.4984 H       
  27 H27            1.9261     8.7552    -0.4985 H       
  28 H28           -2.5287    11.6423    -0.9377 H       
  29 H29           -3.3211    11.2722     0.6126 H       
  30 H30           -1.6956    11.9974     0.5947 H       
  31 H31            2.5023    -2.3057    -0.0342 H       
  32 H32            0.5799    -3.8337    -0.0233 H       
  33 H33           -1.7118    -2.9332     0.0038 H       
  34 H34           -2.0967    -0.5203     0.0197 H       
@<TRIPOS>BOND
   1    1    2 1
   2    1    5 2
   3    2    3 ar
   4    2   22 ar
   5    3    4 1
   6    3   19 ar
   7    4    5 1
   8    5    6 1
   9    6    7 1
  10    6   23 1
  11    7    8 1
  12    7   11 2
  13    8    9 1
  14    9   10 2
  15    9   24 1
  16   10   11 1
  17   10   12 1
  18   12   15 1
  19   12   14 2
  20   13   14 1
  21   13   16 2
  22   14   17 1
  23   15   16 1
  24   16   18 1
  25   17   25 1
  26   17   26 1
  27   17   27 1
  28   18   28 1
  29   18   29 1
  30   18   30 1
  31   19   20 ar
  32   19   31 1
  33   20   21 ar
  34   20   32 1
  35   21   22 ar
  36   21   33 1
  37   22   34 1

#	End of record

