#	Name: ASD05430661
#	Creating user name:	WinNT
#	Creation time:	15. 06. 2019 21:00

#	Modifying user name:	WinNT
#	Modification time:	15. 06. 2019 21:00

#	Program:	/corina/corina34_cracker 3.40 0067  02.08.2006

@<TRIPOS>MOLECULE
ASD05430661
  21   21    0    0    0
SMALL
NO_CHARGES


@<TRIPOS>ATOM
   1 C1            -0.0167     1.3780     0.0096 C.ar    
   2 C2             0.0021    -0.0041     0.0020 C.ar    
   3 C3            -1.1867    -0.7134     0.0096 C.ar    
   4 C4            -2.4127     1.3490     0.0439 C.ar    
   5 C5            -1.2218     2.0546     0.0305 C.ar    
   6 C6             1.2786     2.1482     0.0014 C.3     
   7 C7            -2.3962    -0.0368     0.0252 C.ar    
   8 C8             1.3365     3.0355    -1.2437 C.3     
   9 C9             1.3604     3.0221     1.2546 C.3     
  10 F10           -3.5574    -0.7272     0.0326 F       
  11 F11           -3.5903     2.0107     0.0643 F       
  12 F12           -1.1678    -2.0642     0.0012 F       
  13 H13            0.9448    -0.5309    -0.0102 H       
  14 H14           -1.2342     3.1345     0.0451 H       
  15 H15            2.1161     1.4506    -0.0104 H       
  16 H16            2.2734     3.5926    -1.2497 H       
  17 H17            1.2783     2.4129    -2.1365 H       
  18 H18            0.4991     3.7331    -1.2320 H       
  19 H19            1.3191     2.3900     2.1416 H       
  20 H20            2.2972     3.5791     1.2487 H       
  21 H21            0.5229     3.7197     1.2664 H       
@<TRIPOS>BOND
   1    1    2 ar
   2    1    6 1
   3    1    5 ar
   4    2    3 ar
   5    2   13 1
   6    3    7 ar
   7    3   12 1
   8    4    5 ar
   9    4   11 1
  10    4    7 ar
  11    5   14 1
  12    6    8 1
  13    6    9 1
  14    6   15 1
  15    7   10 1
  16    8   16 1
  17    8   17 1
  18    8   18 1
  19    9   19 1
  20    9   20 1
  21    9   21 1

#	End of record

