#	Name: ASD04370036
#	Creating user name:	WinNT
#	Creation time:	15. 06. 2019 20:49

#	Modifying user name:	WinNT
#	Modification time:	15. 06. 2019 20:49

#	Program:	/corina/corina34_cracker 3.40 0067  02.08.2006

@<TRIPOS>MOLECULE
ASD04370036
  61   61    0    0    0
SMALL
NO_CHARGES


@<TRIPOS>ATOM
   1 C1             1.0619     2.0320    -0.3810 C.2     
   2 C2             0.4268     0.6702    -0.2658 C.3     
   3 C3             1.4942    -0.3604     0.1075 C.3     
   4 C4             0.8758    -1.7598     0.1026 C.3     
   5 O5             2.2467     2.1646    -0.1848 O.2     
   6 O6             0.3123     3.0967    -0.7071 O.3     
   7 N7             1.8694    -2.7358     0.5697 N.3     
   8 C8             1.2288    -4.0078     0.9300 C.3     
   9 C9             2.9189    -2.9416    -0.4373 C.3     
  10 N10            2.0156    -0.0615     1.4436 N.am    
  11 C11            3.3454    -0.0560     1.6623 C.2     
  12 C12            3.8786     0.1361     3.0587 C.3     
  13 C13            5.4079     0.1018     3.0300 C.3     
  14 C14            5.9492     0.2968     4.4477 C.3     
  15 C15            7.4785     0.2624     4.4189 C.3     
  16 C16            8.0198     0.4574     5.8367 C.3     
  17 C17            9.5491     0.4231     5.8079 C.3     
  18 C18           10.0904     0.6181     7.2256 C.3     
  19 O19            4.1131    -0.2056     0.7354 O.2     
  20 O20           11.5187     0.5860     7.1988 O.3     
  21 C21           12.1282     0.7598     8.4795 C.3     
  22 C22           13.6273     0.7091     8.3336 C.ar    
  23 C23           14.3375     1.8709     8.0947 C.ar    
  24 C24           15.7140     1.8252     7.9606 C.ar    
  25 C25           16.3796     0.6130     8.0660 C.ar    
  26 C26           15.6658    -0.5481     8.3050 C.ar    
  27 C27           14.2911    -0.4981     8.4442 C.ar    
  28 F28           17.7234     0.5658     7.9349 F       
  29 F29           16.4087     2.9600     7.7268 F       
  30 H30           -0.3426     0.6923     0.5060 H       
  31 H31           -0.0237     0.3974    -1.2201 H       
  32 H32            2.3074    -0.3200    -0.6172 H       
  33 H33            0.0104    -1.7769     0.7651 H       
  34 H34            0.5634    -2.0155    -0.9099 H       
  35 H35            0.7642     3.9494    -0.7691 H       
  36 H36            0.7192    -4.4178     0.0581 H       
  37 H37            1.9869    -4.7122     1.2724 H       
  38 H38            0.5050    -3.8371     1.7270 H       
  39 H39            3.4355    -1.9996    -0.6215 H       
  40 H40            3.6316    -3.6817    -0.0732 H       
  41 H41            2.4685    -3.2963    -1.3643 H       
  42 H42            1.4036     0.1325     2.1708 H       
  43 H43            3.5440     1.0984     3.4462 H       
  44 H44            3.5092    -0.6628     3.7018 H       
  45 H45            5.7425    -0.8605     2.6425 H       
  46 H46            5.7772     0.9006     2.3870 H       
  47 H47            5.6146     1.2591     4.8352 H       
  48 H48            5.5798    -0.5021     5.0907 H       
  49 H49            7.8131    -0.6999     4.0315 H       
  50 H50            7.8478     1.0613     3.7759 H       
  51 H51            7.6852     1.4197     6.2241 H       
  52 H52            7.6504    -0.3415     6.4797 H       
  53 H53            9.8837    -0.5392     5.4204 H       
  54 H54            9.9184     1.2220     5.1649 H       
  55 H55            9.7558     1.5804     7.6131 H       
  56 H56            9.7210    -0.1808     7.8686 H       
  57 H57           11.8359     1.7250     8.8930 H       
  58 H58           11.8011    -0.0361     9.1486 H       
  59 H59           13.8180     2.8142     8.0125 H       
  60 H60           16.1829    -1.4927     8.3869 H       
  61 H61           13.7350    -1.4041     8.6352 H       
@<TRIPOS>BOND
   1    1    2 1
   2    1    5 2
   3    1    6 1
   4    2    3 1
   5    2   30 1
   6    2   31 1
   7    3    4 1
   8    3   10 1
   9    3   32 1
  10    4    7 1
  11    4   33 1
  12    4   34 1
  13    6   35 1
  14    7    8 1
  15    7    9 1
  16    8   36 1
  17    8   37 1
  18    8   38 1
  19    9   39 1
  20    9   40 1
  21    9   41 1
  22   10   11 am
  23   10   42 1
  24   11   12 1
  25   11   19 2
  26   12   13 1
  27   12   43 1
  28   12   44 1
  29   13   14 1
  30   13   45 1
  31   13   46 1
  32   14   15 1
  33   14   47 1
  34   14   48 1
  35   15   16 1
  36   15   49 1
  37   15   50 1
  38   16   17 1
  39   16   51 1
  40   16   52 1
  41   17   18 1
  42   17   53 1
  43   17   54 1
  44   18   20 1
  45   18   55 1
  46   18   56 1
  47   20   21 1
  48   21   22 1
  49   21   57 1
  50   21   58 1
  51   22   23 ar
  52   22   27 ar
  53   23   24 ar
  54   23   59 1
  55   24   25 ar
  56   24   29 1
  57   25   26 ar
  58   25   28 1
  59   26   27 ar
  60   26   60 1
  61   27   61 1

#	End of record

