#	Name: ASD06350021
#	Creating user name:	WinNT
#	Creation time:	15. 06. 2019 21:06

#	Modifying user name:	WinNT
#	Modification time:	15. 06. 2019 21:06

#	Program:	/corina/corina34_cracker 3.40 0067  02.08.2006

@<TRIPOS>MOLECULE
ASD06350021
  64   68    0    0    0
SMALL
NO_CHARGES


@<TRIPOS>ATOM
   1 C1             5.4536     2.5931     0.4781 C.3     
   2 O2             4.5010     2.7365    -0.5773 O.3     
   3 C3             4.5431     1.8157    -1.5759 C.ar    
   4 C4             3.6473     1.8947    -2.6322 C.ar    
   5 C5             3.6922     0.9574    -3.6460 C.ar    
   6 C6             4.6288    -0.0590    -3.6085 C.ar    
   7 C7             5.5224    -0.1402    -2.5565 C.ar    
   8 C8             5.4857     0.7982    -1.5434 C.ar    
   9 C9             4.6755    -1.0802    -4.7158 C.3     
  10 N10            5.5809    -0.6163    -5.7700 N.pl3   
  11 C11            5.7863    -1.3941    -6.8988 C.ar    
  12 N12            6.6068    -0.9822    -7.8628 N.ar    
  13 C13            6.8070    -1.7160    -8.9386 C.ar    
  14 N14            6.2111    -2.8784    -9.1091 N.ar    
  15 C15            5.3764    -3.3597    -8.1914 C.ar    
  16 C16            5.1418    -2.6208    -7.0388 C.ar    
  17 O17            4.7677    -4.5565    -8.3763 O.3     
  18 C18            4.9566    -5.1923    -9.5637 C.ar    
  19 C19            3.9833    -5.1246   -10.5486 C.ar    
  20 C20            4.1742    -5.7700   -11.7551 C.ar    
  21 C21            5.3411    -6.4871   -11.9823 C.ar    
  22 C22            6.3169    -6.5556   -10.9963 C.ar    
  23 C23            6.1278    -5.9049    -9.7916 C.ar    
  24 F24            7.0764    -5.9704    -8.8319 F       
  25 N25            5.5340    -7.1415   -13.2050 N.am    
  26 C26            6.7760    -7.2683   -13.7128 C.2     
  27 O27            7.7423    -6.9600   -13.0410 O.2     
  28 C28            6.9630    -7.7794   -15.0789 C.2     
  29 C29            8.2350    -8.1071   -15.5455 C.2     
  30 C30            8.3738    -8.5894   -16.8466 C.2     
  31 C31            7.2813    -8.7344   -17.6397 C.2     
  32 N32            6.0415    -8.4172   -17.1926 N.am    
  33 C33            5.8516    -7.9531   -15.9429 C.2     
  34 O34            4.7290    -7.6736   -15.5586 O.2     
  35 C35            4.9393    -8.5807   -18.0423 C.ar    
  36 C36            4.2499    -9.7851   -18.0627 C.ar    
  37 C37            3.1632    -9.9443   -18.9007 C.ar    
  38 C38            2.7605    -8.9038   -19.7208 C.ar    
  39 C39            3.4460    -7.7005   -19.7038 C.ar    
  40 C40            4.5308    -7.5341   -18.8627 C.ar    
  41 F41            5.1996    -6.3605   -18.8455 F       
  42 F42            1.6974    -9.0628   -20.5391 F       
  43 H43            5.3146     1.6274     0.9642 H       
  44 H44            6.4618     2.6516     0.0681 H       
  45 H45            5.3110     3.3907     1.2072 H       
  46 H46            2.9153     2.6882    -2.6618 H       
  47 H47            2.9948     1.0183    -4.4684 H       
  48 H48            6.2527    -0.9355    -2.5291 H       
  49 H49            6.1839     0.7344    -0.7220 H       
  50 H50            5.0355    -2.0296    -4.3194 H       
  51 H51            3.6757    -1.2144    -5.1286 H       
  52 H52            6.0365     0.2350    -5.6781 H       
  53 H53            7.4788    -1.3540    -9.7029 H       
  54 H54            4.4700    -2.9839    -6.2752 H       
  55 H55            3.0751    -4.5673   -10.3725 H       
  56 H56            3.4152    -5.7171   -12.5216 H       
  57 H57            7.2249    -7.1133   -11.1724 H       
  58 H58            4.7738    -7.5036   -13.6865 H       
  59 H59            9.0997    -7.9890   -14.9093 H       
  60 H60            9.3521    -8.8478   -17.2242 H       
  61 H61            7.4024    -9.1089   -18.6454 H       
  62 H62            4.5630   -10.5976   -17.4239 H       
  63 H63            2.6272   -10.8818   -18.9165 H       
  64 H64            3.1305    -6.8903   -20.3445 H       
@<TRIPOS>BOND
   1    1    2 1
   2    1   43 1
   3    1   44 1
   4    1   45 1
   5    2    3 1
   6    3    4 ar
   7    3    8 ar
   8    4    5 ar
   9    4   46 1
  10    5    6 ar
  11    5   47 1
  12    6    7 ar
  13    6    9 1
  14    7    8 ar
  15    7   48 1
  16    8   49 1
  17    9   10 1
  18    9   50 1
  19    9   51 1
  20   10   11 1
  21   10   52 1
  22   11   12 ar
  23   11   16 ar
  24   12   13 ar
  25   13   14 ar
  26   13   53 1
  27   14   15 ar
  28   15   16 ar
  29   15   17 1
  30   16   54 1
  31   17   18 1
  32   18   19 ar
  33   18   23 ar
  34   19   20 ar
  35   19   55 1
  36   20   21 ar
  37   20   56 1
  38   21   22 ar
  39   21   25 1
  40   22   23 ar
  41   22   57 1
  42   23   24 1
  43   25   26 am
  44   25   58 1
  45   26   27 2
  46   26   28 1
  47   28   29 2
  48   28   33 1
  49   29   30 1
  50   29   59 1
  51   30   31 2
  52   30   60 1
  53   31   32 1
  54   31   61 1
  55   32   33 am
  56   32   35 1
  57   33   34 2
  58   35   36 ar
  59   35   40 ar
  60   36   37 ar
  61   36   62 1
  62   37   38 ar
  63   37   63 1
  64   38   39 ar
  65   38   42 1
  66   39   40 ar
  67   39   64 1
  68   40   41 1

#	End of record

