#	Name: ASD05213005
#	Creating user name:	WinNT
#	Creation time:	15. 06. 2019 20:57

#	Modifying user name:	WinNT
#	Modification time:	15. 06. 2019 20:57

#	Program:	/corina/corina34_cracker 3.40 0067  02.08.2006

@<TRIPOS>MOLECULE
ASD05213005
  36   37    0    0    0
SMALL
NO_CHARGES


@<TRIPOS>ATOM
   1 C1            -0.0184     1.5028     0.0103 C.ar    
   2 C2             0.0021    -0.0041     0.0020 C.3     
   3 C3             0.0225    -0.5140     1.4200 C.2     
   4 N4             0.0428    -1.8402     1.6590 N.am    
   5 C5             0.0615    -2.3094     2.9637 C.2     
   6 S6             0.0606    -1.3182     4.3502 S.3     
   7 C7             0.0893    -2.6989     5.4325 C.2     
   8 C8             0.0987    -3.8337     4.7479 C.2     
   9 C9             0.0774    -3.6342     3.3155 C.2     
  10 C10            0.0821    -4.7317     2.3432 C.2     
  11 O11            0.0628    -4.4886     1.1508 O.2     
  12 N12            0.1077    -6.0099     2.7700 N.am    
  13 O13            0.0206     0.2691     2.3461 O.2     
  14 C14            1.1693     2.2102     0.0028 C.ar    
  15 C15            1.1505     3.5924     0.0104 C.ar    
  16 C16           -0.0559     4.2672     0.0251 C.ar    
  17 C17           -1.2435     3.5598     0.0318 C.ar    
  18 C18           -1.2248     2.1776     0.0197 C.ar    
  19 C19            2.4452     4.3635     0.0032 C.3     
  20 C20           -2.5586     4.2954     0.0483 C.3     
  21 H21           -0.8878    -0.3767    -0.5053 H       
  22 H22            0.8920    -0.3525    -0.5222 H       
  23 H23            0.0443    -2.4665     0.9183 H       
  24 H24            0.0988    -2.6330     6.5105 H       
  25 H25            0.1166    -4.8086     5.2124 H       
  26 H26            0.1231    -6.2037     3.7203 H       
  27 H27            0.1108    -6.7360     2.1268 H       
  28 H28            2.1118     1.6830    -0.0087 H       
  29 H29           -0.0705     5.3471     0.0318 H       
  30 H30           -2.1526     1.6249     0.0249 H       
  31 H31            2.7483     4.5550    -1.0262 H       
  32 H32            2.3065     5.3113     0.5234 H       
  33 H33            3.2173     3.7821     0.5071 H       
  34 H34           -2.8851     4.4790    -0.9753 H       
  35 H35           -3.3055     3.6930     0.5654 H       
  36 H36           -2.4365     5.2464     0.5668 H       
@<TRIPOS>BOND
   1    1    2 1
   2    1   14 ar
   3    1   18 ar
   4    2    3 1
   5    2   21 1
   6    2   22 1
   7    3    4 am
   8    3   13 2
   9    4    5 1
  10    4   23 1
  11    5    6 1
  12    5    9 2
  13    6    7 1
  14    7    8 2
  15    7   24 1
  16    8    9 1
  17    8   25 1
  18    9   10 1
  19   10   11 2
  20   10   12 am
  21   12   26 1
  22   12   27 1
  23   14   15 ar
  24   14   28 1
  25   15   16 ar
  26   15   19 1
  27   16   17 ar
  28   16   29 1
  29   17   18 ar
  30   17   20 1
  31   18   30 1
  32   19   31 1
  33   19   32 1
  34   19   33 1
  35   20   34 1
  36   20   35 1
  37   20   36 1

#	End of record

