#	Name: ASD02670017
#	Creating user name:	WinNT
#	Creation time:	15. 06. 2019 20:26

#	Modifying user name:	WinNT
#	Modification time:	15. 06. 2019 20:26

#	Program:	/corina/corina34_cracker 3.40 0067  02.08.2006

@<TRIPOS>MOLECULE
ASD02670017
  79   82    0    0    0
SMALL
NO_CHARGES


@<TRIPOS>ATOM
   1 O1             0.0755     2.7800    -1.1972 O.3     
   2 O2             2.9492     5.4168    -1.4360 O.3     
   3 O3             3.1987     6.2144     3.9366 O.2     
   4 O4            -0.4490     5.7489    -2.0845 O.2     
   5 O5             5.5531     4.9294     7.4352 O.3     
   6 O6             5.9423     2.1485     7.3999 O.2     
   7 O7             2.4780     7.1655    -5.7241 O.3     
   8 C8             1.6000     3.1986     1.6841 C.3     
   9 C9             1.9047     4.6367     1.2147 C.3     
  10 C10            2.3556     2.7757     2.9076 C.3     
  11 C11            1.0789     4.7128    -0.0747 C.3     
  12 C12            2.9495     3.8624     3.7712 C.3     
  13 C13            1.9046     2.4073     0.3917 C.3     
  14 C14            1.3092     3.3166    -0.7176 C.3     
  15 C15            1.5493     5.5734     2.3490 C.3     
  16 C16            2.6144     5.2793     3.4050 C.2     
  17 C17            2.8121     3.6291     5.2698 C.3     
  18 C18            0.0807     3.0677     1.9220 C.3     
  19 C19            1.4646     1.8485     3.7517 C.3     
  20 C20            3.3729     4.8148     0.8164 C.3     
  21 C21            1.6445     5.7983    -0.9953 C.3     
  22 C22            4.4828     3.7469     3.5686 C.3     
  23 C23            2.9104     2.1825     5.6463 C.2     
  24 C24            2.2779     1.3032     4.9055 C.2     
  25 C25            3.6680     1.7250     6.8677 C.3     
  26 C26            3.7480     4.5082     6.0348 C.2     
  27 C27            1.7307     7.1210    -0.2313 C.3     
  28 C28            0.7401     5.9658    -2.1891 C.2     
  29 C29            4.8824     2.6159     7.0490 C.2     
  30 C30            4.7147     4.0536     6.8276 C.2     
  31 C31            2.7728     1.8312     8.1118 C.3     
  32 C32            4.1521     0.2757     6.7254 C.3     
  33 C33            1.2960     6.3897    -3.4739 C.2     
  34 C34            0.4951     6.5380    -4.5311 C.2     
  35 C35            1.0678     6.9748    -5.8548 C.3     
  36 C36            0.4132     8.2891    -6.2849 C.3     
  37 C37            0.7940     5.8999    -6.9086 C.3     
  38 H38            3.2095     2.1426     2.5620 H       
  39 H39            0.0308     4.8895     0.1178 H       
  40 H40            2.9695     2.2565     0.2629 H       
  41 H41            1.3824     1.4477     0.4217 H       
  42 H42            2.0204     3.4074    -1.5389 H       
  43 H43            1.6294     6.6168     2.0246 H       
  44 H44            0.5574     5.4031     2.7507 H       
  45 H45            1.8052     3.9521     5.5210 H       
  46 H46           -0.4516     3.2749     0.9937 H       
  47 H47           -0.1491     2.0554     2.2545 H       
  48 H48           -0.2301     3.7804     2.6860 H       
  49 H49            0.6415     2.4057     4.1964 H       
  50 H50            1.1204     1.0114     3.1532 H       
  51 H51            3.6450     4.0559     0.0828 H       
  52 H52            3.5146     5.8053     0.3842 H       
  53 H53            4.0041     4.7098     1.6989 H       
  54 H54            4.6974     3.5640     2.5157 H       
  55 H55            4.9615     4.6749     3.8811 H       
  56 H56            4.8670     2.9205     4.1666 H       
  57 H57            2.2918     0.2542     5.0761 H       
  58 H58            3.6362     5.5817     5.9570 H       
  59 H59            0.1590     1.9090    -1.6088 H       
  60 H60            2.4780     7.0368     0.5577 H       
  61 H61            2.0148     7.9190    -0.9172 H       
  62 H62            0.7606     7.3495     0.2101 H       
  63 H63            2.9561     4.6553    -2.0319 H       
  64 H64            1.8919     1.2029     7.9802 H       
  65 H65            4.8128     0.1964     5.8621 H       
  66 H66            4.6933    -0.0167     7.6253 H       
  67 H67            3.3285     1.4988     8.9887 H       
  68 H68            2.4631     2.8672     8.2492 H       
  69 H69            3.2939    -0.3822     6.5877 H       
  70 H70            2.3545     6.5827    -3.5670 H       
  71 H71            6.2237     4.5103     7.9918 H       
  72 H72           -0.5634     6.3450    -4.4380 H       
  73 H73            1.2603     4.9636    -6.6022 H       
  74 H74           -0.2817     5.7545    -7.0083 H       
  75 H75            1.2082     6.2159    -7.8661 H       
  76 H76            0.8274     8.6051    -7.2424 H       
  77 H77           -0.6625     8.1437    -6.3847 H       
  78 H78            0.6082     9.0549    -5.5342 H       
  79 H79            2.9588     6.3714    -5.4533 H       
@<TRIPOS>BOND
   1    1   59 1
   2    1   14 1
   3    2   63 1
   4    2   21 1
   5    3   16 2
   6    4   28 2
   7    5   30 1
   8    5   71 1
   9    6   29 2
  10    7   35 1
  11    7   79 1
  12    8    9 1
  13    8   13 1
  14    8   18 1
  15    8   10 1
  16    9   11 1
  17    9   15 1
  18    9   20 1
  19   10   19 1
  20   10   38 1
  21   10   12 1
  22   11   14 1
  23   11   21 1
  24   11   39 1
  25   12   16 1
  26   12   22 1
  27   12   17 1
  28   13   14 1
  29   13   40 1
  30   13   41 1
  31   14   42 1
  32   15   16 1
  33   15   43 1
  34   15   44 1
  35   17   23 1
  36   17   26 1
  37   17   45 1
  38   18   46 1
  39   18   47 1
  40   18   48 1
  41   19   24 1
  42   19   49 1
  43   19   50 1
  44   20   51 1
  45   20   52 1
  46   20   53 1
  47   21   27 1
  48   21   28 1
  49   22   54 1
  50   22   55 1
  51   22   56 1
  52   23   24 2
  53   23   25 1
  54   24   57 1
  55   25   29 1
  56   25   31 1
  57   25   32 1
  58   26   30 2
  59   26   58 1
  60   27   60 1
  61   27   61 1
  62   27   62 1
  63   28   33 1
  64   29   30 1
  65   31   64 1
  66   31   67 1
  67   31   68 1
  68   32   65 1
  69   32   66 1
  70   32   69 1
  71   33   34 2
  72   33   70 1
  73   34   35 1
  74   34   72 1
  75   35   36 1
  76   35   37 1
  77   36   76 1
  78   36   77 1
  79   36   78 1
  80   37   73 1
  81   37   74 1
  82   37   75 1

#	End of record

