#	Name: ASD03091063
#	Creating user name:	WinNT
#	Creation time:	15. 06. 2019 20:30

#	Modifying user name:	WinNT
#	Modification time:	15. 06. 2019 20:30

#	Program:	/corina/corina34_cracker 3.40 0067  02.08.2006

@<TRIPOS>MOLECULE
ASD03091063
  42   44    0    0    0
SMALL
NO_CHARGES


@<TRIPOS>ATOM
   1 C1             0.6699     0.2548    -2.2582 C.2     
   2 C2             0.3353    -0.5949    -1.0953 C.ar    
   3 C3             1.2562    -0.7575    -0.0586 C.ar    
   4 C4             0.9416    -1.5508     1.0256 C.ar    
   5 C5            -0.2843    -2.1867     1.0905 C.ar    
   6 C6            -1.2080    -2.0313     0.0637 C.ar    
   7 C7            -0.9034    -1.2318    -1.0277 C.ar    
   8 O8             1.6456    -0.0004    -2.9367 O.2     
   9 N9            -0.1100     1.3091    -2.5692 N.am    
  10 N10            2.5702    -0.0791    -0.1228 N.pl3   
  11 O11            3.4188    -0.3144     0.7187 O.2     
  12 O12            2.8029     0.7145    -1.0170 O.2     
  13 C13            0.2216     2.1509    -3.7214 C.3     
  14 N14           -4.7128    -4.3262    -0.8186 N.3     
  15 C15           -4.7044    -2.8567    -0.8821 C.3     
  16 C16           -3.2835    -2.3330    -1.0213 C.3     
  17 N17           -2.4453    -2.6764     0.1337 N.3     
  18 C18           -2.2751    -4.1325     0.2355 C.3     
  19 C19           -3.3138    -4.7238     1.1768 C.3     
  20 C20           -4.7074    -4.7686     0.5832 C.3     
  21 C21           -3.7259    -5.0078    -1.6284 C.3     
  22 C22           -2.3068    -4.7360    -1.1567 C.3     
  23 H23            1.6557    -1.6759     1.8262 H       
  24 H24           -0.5248    -2.8064     1.9416 H       
  25 H25           -1.6214    -1.1064    -1.8247 H       
  26 H26           -0.8909     1.5104    -2.0301 H       
  27 H27            0.2183     1.5447    -4.6272 H       
  28 H28           -0.5172     2.9470    -3.8143 H       
  29 H29            1.2103     2.5875    -3.5799 H       
  30 H30           -5.2928    -2.5310    -1.7399 H       
  31 H31           -5.1473    -2.4554     0.0295 H       
  32 H32           -2.8371    -2.7582    -1.9203 H       
  33 H33           -3.3155    -1.2484    -1.1243 H       
  34 H34           -1.2881    -4.3281     0.6548 H       
  35 H35           -3.0121    -5.7383     1.4373 H       
  36 H36           -3.3410    -4.1255     2.0875 H       
  37 H37           -5.3626    -4.1193     1.1639 H       
  38 H38           -5.0837    -5.7903     0.6353 H       
  39 H39           -3.9133    -6.0807    -1.5855 H       
  40 H40           -3.8250    -4.6744    -2.6614 H       
  41 H41           -1.8281    -4.0470    -1.8525 H       
  42 H42           -1.7504    -5.6732    -1.1494 H       
@<TRIPOS>BOND
   1    1    2 1
   2    1    8 2
   3    1    9 am
   4    2    3 ar
   5    2    7 ar
   6    3    4 ar
   7    3   10 1
   8    4    5 ar
   9    4   23 1
  10    5    6 ar
  11    5   24 1
  12    6    7 ar
  13    6   17 1
  14    7   25 1
  15    9   13 1
  16    9   26 1
  17   10   11 2
  18   10   12 2
  19   13   27 1
  20   13   28 1
  21   13   29 1
  22   14   15 1
  23   14   20 1
  24   14   21 1
  25   15   16 1
  26   15   30 1
  27   15   31 1
  28   16   17 1
  29   16   32 1
  30   16   33 1
  31   17   18 1
  32   18   19 1
  33   18   22 1
  34   18   34 1
  35   19   20 1
  36   19   35 1
  37   19   36 1
  38   20   37 1
  39   20   38 1
  40   21   22 1
  41   21   39 1
  42   21   40 1
  43   22   41 1
  44   22   42 1

#	End of record

