#	Name: ASD02039351
#	Creating user name:	WinNT
#	Creation time:	15. 06. 2019 20:18

#	Modifying user name:	WinNT
#	Modification time:	15. 06. 2019 20:18

#	Program:	/corina/corina34_cracker 3.40 0067  02.08.2006

@<TRIPOS>MOLECULE
ASD02039351
  44   46    0    0    0
SMALL
NO_CHARGES


@<TRIPOS>ATOM
   1 C1             0.1314     1.1810    -0.3271 C.ar    
   2 C2             0.5094    -0.0979     0.0373 C.ar    
   3 C3            -0.3987    -1.1382    -0.0364 C.ar    
   4 C4            -2.0740     0.3865    -0.8314 C.ar    
   5 C5            -1.1574     1.4258    -0.7611 C.ar    
   6 N6            -3.3828     0.6321    -1.2721 N.pl3   
   7 C7             1.1248     2.3112    -0.2449 C.3     
   8 N8             1.9435     2.3311    -1.4596 N.am    
   9 C9             1.4535     3.0093    -2.6622 C.3     
  10 C10            3.1475     1.7254    -1.4708 C.2     
  11 C11            3.5954     0.9549    -0.2977 C.2     
  12 C12            4.7269     0.1975    -0.2145 C.2     
  13 N13            2.9603     0.8740     0.8995 N.2     
  14 C14            3.6501     0.1044     1.6908 C.2     
  15 N15            4.7539    -0.3331     1.0307 N.pl3   
  16 O16            3.8642     1.8149    -2.4493 O.2     
  17 C17            5.7874    -1.2207     1.5693 C.3     
  18 C18           -4.3768    -0.2689    -1.3928 C.2     
  19 C19            2.4394     4.1074    -3.0659 C.3     
  20 C20            1.3235     1.9965    -3.8016 C.3     
  21 C21           -1.6885    -0.9015    -0.4758 C.ar    
  22 F22           -2.5758    -1.9177    -0.5484 F       
  23 N23           -3.9196     1.8676    -1.6695 N.2     
  24 C24           -5.1652     1.6492    -2.0021 C.2     
  25 N25           -5.4387     0.3560    -1.8336 N.2     
  26 H26            1.5163    -0.2850     0.3800 H       
  27 H27           -0.1004    -2.1362     0.2490 H       
  28 H28           -1.4537     2.4271    -1.0366 H       
  29 H29            0.5918     3.2573    -0.1505 H       
  30 H30            1.7672     2.1678     0.6239 H       
  31 H31            0.4792     3.4531    -2.4576 H       
  32 H32            5.4606     0.0493    -0.9930 H       
  33 H33            3.3888    -0.1436     2.7089 H       
  34 H34            5.5183    -2.2572     1.3661 H       
  35 H35            6.7432    -0.9942     1.0968 H       
  36 H36            5.8699    -1.0711     2.6459 H       
  37 H37           -4.3091    -1.3226    -1.1659 H       
  38 H38            3.4295     3.6733    -3.2058 H       
  39 H39            2.1095     4.5674    -3.9973 H       
  40 H40            2.4818     4.8638    -2.2822 H       
  41 H41            0.5874     1.2391    -3.5323 H       
  42 H42            1.0023     2.5091    -4.7084 H       
  43 H43            2.2881     1.5199    -3.9759 H       
  44 H44           -5.8608     2.3967    -2.3539 H       
@<TRIPOS>BOND
   1    1    2 ar
   2    1    7 1
   3    1    5 ar
   4    2    3 ar
   5    2   26 1
   6    3   21 ar
   7    3   27 1
   8    4    5 ar
   9    4    6 1
  10    4   21 ar
  11    5   28 1
  12    6   18 1
  13    6   23 1
  14    7    8 1
  15    7   29 1
  16    7   30 1
  17    8    9 1
  18    8   10 am
  19    9   20 1
  20    9   19 1
  21    9   31 1
  22   10   11 1
  23   10   16 2
  24   11   12 2
  25   11   13 1
  26   12   15 1
  27   12   32 1
  28   13   14 2
  29   14   15 1
  30   14   33 1
  31   15   17 1
  32   17   34 1
  33   17   35 1
  34   17   36 1
  35   18   25 2
  36   18   37 1
  37   19   38 1
  38   19   39 1
  39   19   40 1
  40   20   41 1
  41   20   42 1
  42   20   43 1
  43   21   22 1
  44   23   24 2
  45   24   25 1
  46   24   44 1

#	End of record

