#	Name: ASD04230097
#	Creating user name:	WinNT
#	Creation time:	15. 06. 2019 20:48

#	Modifying user name:	WinNT
#	Modification time:	15. 06. 2019 20:48

#	Program:	/corina/corina34_cracker 3.40 0067  02.08.2006

@<TRIPOS>MOLECULE
ASD04230097
  51   55    0    0    0
SMALL
NO_CHARGES


@<TRIPOS>ATOM
   1 C1             1.5359     4.6862     1.7199 C.ar    
   2 C2             2.5438     5.3840     2.3697 C.ar    
   3 C3             3.8003     4.8590     2.4683 C.ar    
   4 C4             4.0824     3.6081     1.9006 C.ar    
   5 C5             3.0563     2.8818     1.2694 C.ar    
   6 C6             1.7831     3.4396     1.1728 C.ar    
   7 C7             5.3933     3.0678     1.9622 C.2     
   8 C8             5.6627     1.9284     1.2158 C.2     
   9 C9             4.5671     1.3877     0.3906 C.2     
  10 O10            3.2978     1.6422     0.7795 O.3     
  11 C11            6.9878     1.2871     1.2467 C.2     
  12 N12            7.2188     0.1818     0.5109 N.am    
  13 O13            7.8739     1.7548     1.9362 O.2     
  14 C14            8.5059    -0.3623     0.4514 C.ar    
  15 C15            8.6753    -1.7390     0.3692 C.ar    
  16 C16            9.9457    -2.2803     0.3103 C.ar    
  17 C17           11.0532    -1.4566     0.3333 C.ar    
  18 C18           10.8927    -0.0742     0.4156 C.ar    
  19 C19            9.6134     0.4724     0.4687 C.ar    
  20 C20           12.0821     0.8125     0.4404 C.ar    
  21 O21            4.7981     0.7334    -0.6090 O.2     
  22 C22           11.9214     2.1939     0.5227 C.ar    
  23 C23           13.0286     3.0170     0.5446 C.ar    
  24 C24           14.3044     2.4738     0.4848 C.ar    
  25 C25           14.4706     1.0946     0.4054 C.ar    
  26 C26           13.3623     0.2651     0.3872 C.ar    
  27 O27           15.3828     3.3043     0.5001 O.3     
  28 C28           16.6472     2.7122     0.8165 C.3     
  29 C29           16.7910     1.4205     0.0005 C.3     
  30 O30           15.7149     0.5449     0.3540 O.3     
  31 O31            0.7868     2.7609     0.5437 O.3     
  32 C32           -0.4923     3.3950     0.4832 C.3     
  33 F33           -0.3780     4.6116    -0.1980 F       
  34 F34           -1.3928     2.5648    -0.1929 F       
  35 F35           -0.9586     3.6293     1.7812 F       
  36 H36            0.5487     5.1178     1.6445 H       
  37 H37            2.3326     6.3514     2.8011 H       
  38 H38            4.5762     5.4065     2.9827 H       
  39 H39            6.1575     3.5287     2.5705 H       
  40 H40            6.4924    -0.2364     0.0225 H       
  41 H41            7.8121    -2.3878     0.3516 H       
  42 H42           10.0723    -3.3510     0.2465 H       
  43 H43           12.0443    -1.8833     0.2878 H       
  44 H44            9.4840     1.5428     0.5322 H       
  45 H45           10.9303     2.6205     0.5689 H       
  46 H46           12.9020     4.0877     0.6082 H       
  47 H47           13.4899    -0.8055     0.3236 H       
  48 H48           17.4509     3.4016     0.5581 H       
  49 H49           16.6886     2.4810     1.8809 H       
  50 H50           16.7430     1.6508    -1.0638 H       
  51 H51           17.7437     0.9439     0.2314 H       
@<TRIPOS>BOND
   1    1    2 ar
   2    1    6 ar
   3    1   36 1
   4    2    3 ar
   5    2   37 1
   6    3    4 ar
   7    3   38 1
   8    4    5 ar
   9    4    7 1
  10    5    6 ar
  11    5   10 1
  12    6   31 1
  13    7    8 2
  14    7   39 1
  15    8    9 1
  16    8   11 1
  17    9   10 1
  18    9   21 2
  19   11   12 am
  20   11   13 2
  21   12   14 1
  22   12   40 1
  23   14   15 ar
  24   14   19 ar
  25   15   16 ar
  26   15   41 1
  27   16   17 ar
  28   16   42 1
  29   17   18 ar
  30   17   43 1
  31   18   19 ar
  32   18   20 1
  33   19   44 1
  34   20   22 ar
  35   20   26 ar
  36   22   23 ar
  37   22   45 1
  38   23   24 ar
  39   23   46 1
  40   24   25 ar
  41   24   27 1
  42   25   26 ar
  43   25   30 1
  44   26   47 1
  45   27   28 1
  46   28   29 1
  47   28   48 1
  48   28   49 1
  49   29   30 1
  50   29   50 1
  51   29   51 1
  52   31   32 1
  53   32   33 1
  54   32   34 1
  55   32   35 1

#	End of record

