#	Name: ASD01916213
#	Creating user name:	WinNT
#	Creation time:	15. 06. 2019 20:06

#	Modifying user name:	WinNT
#	Modification time:	15. 06. 2019 20:06

#	Program:	/corina/corina34_cracker 3.40 0067  02.08.2006

@<TRIPOS>MOLECULE
ASD01916213
  41   44    0    0    0
SMALL
NO_CHARGES


@<TRIPOS>ATOM
   1 C1            -0.4223     2.2011     0.4267 C.ar    
   2 C2            -0.5441     0.8463     0.6746 C.ar    
   3 C3             0.5858     0.0682     0.8467 C.ar    
   4 C4             1.8397     0.6429     0.7709 C.ar    
   5 C5             1.9647     2.0019     0.5217 C.ar    
   6 C6             0.8294     2.7805     0.3499 C.ar    
   7 O7             3.1971     2.5697     0.4471 O.3     
   8 C8             3.2498     3.9740     0.1878 C.3     
   9 C9             4.6878     4.4225     0.1404 C.2     
  10 N10            5.4660     4.4581    -0.9577 N.2     
  11 C11            6.6409     4.8900    -0.6356 C.2     
  12 N12            6.6526     5.1605     0.7102 N.am    
  13 C13            5.4126     4.8621     1.1902 C.2     
  14 C14            7.8643     5.0936    -1.4969 C.3     
  15 C15            8.7085     6.2045    -0.8626 C.3     
  16 N16            8.7904     6.0457     0.5861 N.am    
  17 C17            7.7425     5.6445     1.3337 C.2     
  18 O18            7.7814     5.7188     2.5458 O.2     
  19 C19           10.0058     6.3211     1.2250 C.ar    
  20 C20           10.7287     5.2937     1.8163 C.ar    
  21 C21           11.9271     5.5673     2.4460 C.ar    
  22 C22           12.4078     6.8653     2.4878 C.ar    
  23 C23           11.6883     7.8913     1.8987 C.ar    
  24 C24           10.4923     7.6210     1.2631 C.ar    
  25 F25           13.5800     7.1310     3.1046 F       
  26 I26            4.7626     5.0380     3.1740 I       
  27 H27           -1.3063     2.8059     0.2885 H       
  28 H28           -1.5236     0.3951     0.7343 H       
  29 H29            0.4880    -0.9897     1.0410 H       
  30 H30            2.7220     0.0348     0.9057 H       
  31 H31            0.9241     3.8387     0.1555 H       
  32 H32            2.7717     4.1851    -0.7688 H       
  33 H33            2.7281     4.5098     0.9808 H       
  34 H34            8.4423     4.1705    -1.5403 H       
  35 H35            7.5626     5.3881    -2.5020 H       
  36 H36            9.7139     6.1728    -1.2826 H       
  37 H37            8.2576     7.1702    -1.0910 H       
  38 H38           10.3540     4.2813     1.7843 H       
  39 H39           12.4896     4.7685     2.9064 H       
  40 H40           12.0647     8.9031     1.9327 H       
  41 H41            9.9316     8.4214     0.8034 H       
@<TRIPOS>BOND
   1    1    2 ar
   2    1    6 ar
   3    1   27 1
   4    2    3 ar
   5    2   28 1
   6    3    4 ar
   7    3   29 1
   8    4    5 ar
   9    4   30 1
  10    5    6 ar
  11    5    7 1
  12    6   31 1
  13    7    8 1
  14    8    9 1
  15    8   32 1
  16    8   33 1
  17    9   10 1
  18    9   13 2
  19   10   11 2
  20   11   12 1
  21   11   14 1
  22   12   13 1
  23   12   17 am
  24   13   26 1
  25   14   15 1
  26   14   34 1
  27   14   35 1
  28   15   16 1
  29   15   36 1
  30   15   37 1
  31   16   17 am
  32   16   19 1
  33   17   18 2
  34   19   20 ar
  35   19   24 ar
  36   20   21 ar
  37   20   38 1
  38   21   22 ar
  39   21   39 1
  40   22   23 ar
  41   22   25 1
  42   23   24 ar
  43   23   40 1
  44   24   41 1

#	End of record

