#	Name: ASD07300614
#	Creating user name:	WinNT
#	Creation time:	15. 06. 2019 21:10

#	Modifying user name:	WinNT
#	Modification time:	15. 06. 2019 21:10

#	Program:	/corina/corina34_cracker 3.40 0067  02.08.2006

@<TRIPOS>MOLECULE
ASD07300614
  59   63    0    0    0
SMALL
NO_CHARGES


@<TRIPOS>ATOM
   1 C1            -0.0034     1.3930     0.2418 C.2     
   2 C2             0.0021    -0.0041     0.0020 C.2     
   3 N3             1.1908     2.0671     0.2269 N.pl3   
   4 N4             1.1441    -0.6202    -0.2281 N.2     
   5 C5             2.3024     0.0467    -0.2404 C.2     
   6 C6             2.3477     1.3757    -0.0173 C.2     
   7 N7            -0.9702     2.2587     0.5010 N.2     
   8 C8            -0.4513     3.4736     0.6494 C.2     
   9 C9             0.9142     3.3828     0.4824 C.2     
  10 N10           -1.1861    -0.7177     0.0100 N.pl3   
  11 C11           -2.4814    -0.0309     0.1360 C.3     
  12 C12           -3.4039    -0.5296    -0.9821 C.3     
  13 O13           -3.4384    -1.9587    -0.9615 O.3     
  14 C14           -2.1751    -2.5783    -1.2140 C.3     
  15 C15           -1.1899    -2.1840    -0.1135 C.3     
  16 C16            1.6346     5.7094    -0.0649 C.ar    
  17 C17            1.8894     4.4900     0.5655 C.ar    
  18 C18            3.0843     4.3342     1.2782 C.ar    
  19 C19            3.9635     5.4018     1.3257 C.ar    
  20 C20            3.6371     6.5773     0.6740 C.ar    
  21 N21            2.5034     6.6960     0.0096 N.ar    
  22 C22            4.5921     7.7421     0.7241 C.3     
  23 C23            4.9275     8.1882    -0.7004 C.3     
  24 C24            5.9910     9.2872    -0.6536 C.3     
  25 C25            5.4614     6.9954    -1.4960 C.3     
  26 O26            3.7488     8.6926    -1.3316 O.3     
  27 C27            3.9536     9.1386    -2.6737 C.3     
  28 C28           -1.2224     4.7324     0.9526 C.3     
  29 C29           -2.2937     5.1637    -0.0510 C.3     
  30 C30           -2.7040     4.5858     1.3049 C.3     
  31 H31            3.2201    -0.4895    -0.4320 H       
  32 H32            3.2949     1.8944    -0.0316 H       
  33 H33           -2.9243    -0.2575     1.1059 H       
  34 H34           -2.3371     1.0453     0.0402 H       
  35 H35           -4.4094    -0.1389    -0.8259 H       
  36 H36           -3.0255    -0.1884    -1.9457 H       
  37 H37           -2.2965    -3.6615    -1.2248 H       
  38 H38           -1.7922    -2.2446    -2.1785 H       
  39 H39           -0.1908    -2.5330    -0.3744 H       
  40 H40           -1.5005    -2.6311     0.8308 H       
  41 H41            0.7191     5.8431    -0.6222 H       
  42 H42            3.3138     3.4049     1.7783 H       
  43 H43            4.8947     5.3180     1.8663 H       
  44 H44            4.1295     8.5682     1.2642 H       
  45 H45            5.5064     7.4406     1.2352 H       
  46 H46            6.8900     8.9025    -0.1722 H       
  47 H47            6.2299     9.6050    -1.6685 H       
  48 H48            5.6106    10.1370    -0.0868 H       
  49 H49            4.7037     6.2125    -1.5294 H       
  50 H50            5.7003     7.3133    -2.5109 H       
  51 H51            6.3604     6.6107    -1.0146 H       
  52 H52            3.0122     9.5063    -3.0820 H       
  53 H53            4.6911     9.9412    -2.6812 H       
  54 H54            4.3138     8.3085    -3.2814 H       
  55 H55           -0.6601     5.5181     1.4572 H       
  56 H56           -2.4365     6.2331    -0.2063 H       
  57 H57           -2.4408     4.5369    -0.9305 H       
  58 H58           -3.1211     3.5788     1.3175 H       
  59 H59           -3.1167     5.2750     2.0417 H       
@<TRIPOS>BOND
   1    1    2 1
   2    1    3 1
   3    1    7 2
   4    2    4 2
   5    2   10 1
   6    3    6 1
   7    3    9 1
   8    4    5 1
   9    5    6 2
  10    5   31 1
  11    6   32 1
  12    7    8 1
  13    8    9 2
  14    8   28 1
  15    9   17 1
  16   10   11 1
  17   10   15 1
  18   11   12 1
  19   11   33 1
  20   11   34 1
  21   12   13 1
  22   12   35 1
  23   12   36 1
  24   13   14 1
  25   14   15 1
  26   14   37 1
  27   14   38 1
  28   15   39 1
  29   15   40 1
  30   16   17 ar
  31   16   21 ar
  32   16   41 1
  33   17   18 ar
  34   18   19 ar
  35   18   42 1
  36   19   20 ar
  37   19   43 1
  38   20   21 ar
  39   20   22 1
  40   22   23 1
  41   22   44 1
  42   22   45 1
  43   23   24 1
  44   23   25 1
  45   23   26 1
  46   24   46 1
  47   24   47 1
  48   24   48 1
  49   25   49 1
  50   25   50 1
  51   25   51 1
  52   26   27 1
  53   27   52 1
  54   27   53 1
  55   27   54 1
  56   28   29 1
  57   28   30 1
  58   28   55 1
  59   29   30 1
  60   29   56 1
  61   29   57 1
  62   30   58 1
  63   30   59 1

#	End of record

