#	Name: ASD01901023
#	Creating user name:	WinNT
#	Creation time:	15. 06. 2019 19:53

#	Modifying user name:	WinNT
#	Modification time:	15. 06. 2019 19:53

#	Program:	/corina/corina34_cracker 3.40 0067  02.08.2006

@<TRIPOS>MOLECULE
ASD01901023
  25   27    0    0    0
SMALL
NO_CHARGES


@<TRIPOS>ATOM
   1 C1            -0.0159     1.3193     0.0093 C.ar    
   2 N2             0.0021    -0.0041     0.0020 N.ar    
   3 C3             1.1587    -0.6664    -0.0126 C.ar    
   4 C4             2.3554     0.0601    -0.0202 C.ar    
   5 C5             2.2872     1.4407    -0.0121 C.ar    
   6 N6             1.1019     2.0312     0.0024 N.ar    
   7 N7            -1.2338     1.9768     0.0186 N.pl3   
   8 C8             1.7204    -4.6162    -0.0380 C.ar    
   9 C9             0.3495    -4.3362    -0.0232 C.ar    
  10 C10            0.0871    -2.9102    -0.0135 C.2     
  11 C11            1.1775    -2.1435    -0.0203 C.2     
  12 S12            2.6366    -3.1147    -0.0394 S.3     
  13 C13           -0.5655    -5.4134    -0.0197 C.ar    
  14 C14           -0.1180    -6.6983    -0.0305 C.ar    
  15 C15            1.2431    -6.9727    -0.0452 C.ar    
  16 C16            2.1563    -5.9451    -0.0542 C.ar    
  17 H17            3.3093    -0.4461    -0.0317 H       
  18 H18            3.1911     2.0317    -0.0173 H       
  19 H19           -2.0597     1.4680     0.0197 H       
  20 H20           -1.2615     2.9464     0.0240 H       
  21 H21           -0.9126    -2.5016    -0.0020 H       
  22 H22           -1.6271    -5.2152    -0.0079 H       
  23 H23           -0.8280    -7.5121    -0.0273 H       
  24 H24            1.5855    -7.9970    -0.0537 H       
  25 H25            3.2137    -6.1647    -0.0661 H       
@<TRIPOS>BOND
   1    1    2 ar
   2    1    6 ar
   3    1    7 1
   4    2    3 ar
   5    3    4 ar
   6    3   11 1
   7    4    5 ar
   8    4   17 1
   9    5    6 ar
  10    5   18 1
  11    7   19 1
  12    7   20 1
  13    8    9 ar
  14    8   12 1
  15    8   16 ar
  16    9   10 1
  17    9   13 ar
  18   10   11 2
  19   10   21 1
  20   11   12 1
  21   13   14 ar
  22   13   22 1
  23   14   15 ar
  24   14   23 1
  25   15   16 ar
  26   15   24 1
  27   16   25 1

#	End of record

