#	Name: ASD01420246
#	Creating user name:	WinNT
#	Creation time:	15. 06. 2019 19:20

#	Modifying user name:	WinNT
#	Modification time:	15. 06. 2019 19:20

#	Program:	/corina/corina34_cracker 3.40 0067  02.08.2006

@<TRIPOS>MOLECULE
ASD01420246
  40   43    0    0    0
SMALL
NO_CHARGES


@<TRIPOS>ATOM
   1 C1            -0.0169     1.3940     0.0097 C.ar    
   2 C2             0.0021    -0.0041     0.0020 C.ar    
   3 C3             1.2349    -0.6800    -0.0134 C.ar    
   4 C4             2.4215     0.0390    -0.0202 C.ar    
   5 C5             2.3912     1.4171    -0.0118 C.ar    
   6 C6             1.1742     2.0955     0.0021 C.ar    
   7 N7            -0.9721    -0.9469     0.0055 N.2     
   8 C8            -0.4305    -2.1410    -0.0065 C.2     
   9 N9             0.9337    -2.0310    -0.0185 N.pl3   
  10 C10           -1.1803    -3.4142    -0.0061 C.2     
  11 C11           -2.5878    -3.5500     0.0068 C.2     
  12 C12           -2.8752    -4.8746     0.0017 C.2     
  13 N13           -1.6994    -5.5560    -0.0138 N.pl3   
  14 N14           -0.6546    -4.6234    -0.0233 N.2     
  15 N15           -3.5207    -2.5005     0.0225 N.am    
  16 C16           -4.8407    -2.7723     0.0336 C.2     
  17 O17           -5.2239    -3.9265     0.0300 O.2     
  18 C18           -5.8207    -1.6698     0.0501 C.ar    
  19 C19           -6.2763    -1.1516     1.2672 C.ar    
  20 C20           -7.1943    -0.1183     1.2735 C.ar    
  21 C21           -7.6626     0.4031     0.0812 C.ar    
  22 C22           -7.2179    -0.1034    -1.1265 C.ar    
  23 C23           -6.2955    -1.1325    -1.1513 C.ar    
  24 F24           -5.8620    -1.6255    -2.3320 F       
  25 F25           -5.8207    -1.6601     2.4330 F       
  26 N26            1.1577     3.4946     0.0105 N.pl3   
  27 O27            2.3755     4.2171     0.0048 O.3     
  28 O28           -0.0768     4.1880     0.0246 O.3     
  29 H29           -0.9581     1.9236     0.0170 H       
  30 H30            3.3681    -0.4807    -0.0316 H       
  31 H31            3.3163     1.9744    -0.0171 H       
  32 H32            1.5702    -2.7628    -0.0287 H       
  33 H33           -3.8630    -5.3111     0.0092 H       
  34 H34           -1.6010    -6.5209    -0.0202 H       
  35 H35           -3.2150    -1.5799     0.0253 H       
  36 H36           -7.5470     0.2829     2.2121 H       
  37 H37           -8.3801     1.2103     0.0932 H       
  38 H38           -7.5894     0.3091    -2.0530 H       
  39 H39            2.2631     5.1775     0.0114 H       
  40 H40            0.0129     5.1508     0.0296 H       
@<TRIPOS>BOND
   1    1    2 ar
   2    1    6 ar
   3    1   29 1
   4    2    3 ar
   5    2    7 1
   6    3    4 ar
   7    3    9 1
   8    4    5 ar
   9    4   30 1
  10    5    6 ar
  11    5   31 1
  12    6   26 1
  13    7    8 2
  14    8    9 1
  15    8   10 1
  16    9   32 1
  17   10   11 1
  18   10   14 2
  19   11   12 2
  20   11   15 1
  21   12   13 1
  22   12   33 1
  23   13   14 1
  24   13   34 1
  25   15   16 am
  26   15   35 1
  27   16   18 1
  28   16   17 2
  29   18   19 ar
  30   18   23 ar
  31   19   20 ar
  32   19   25 1
  33   20   21 ar
  34   20   36 1
  35   21   22 ar
  36   21   37 1
  37   22   23 ar
  38   22   38 1
  39   23   24 1
  40   26   27 1
  41   26   28 1
  42   27   39 1
  43   28   40 1

#	End of record

