#	Name: ASD01917672
#	Creating user name:	WinNT
#	Creation time:	15. 06. 2019 20:09

#	Modifying user name:	WinNT
#	Modification time:	15. 06. 2019 20:09

#	Program:	/corina/corina34_cracker 3.40 0067  02.08.2006

@<TRIPOS>MOLECULE
ASD01917672
  40   43    0    0    0
SMALL
NO_CHARGES


@<TRIPOS>ATOM
   1 C1            -0.0140     1.4937     0.0245 C.3     
   2 C2             0.0204    -0.0166     0.0081 C.2     
   3 C3             2.4649    -0.1849    -0.4926 C.3     
   4 C4             2.3201     1.2814    -0.9140 C.3     
   5 N5             1.3859     1.9574    -0.0009 N.am    
   6 C6            -1.0014    -0.8652     0.2167 C.2     
   7 C7            -0.5003    -2.1778     0.0954 C.2     
   8 N8             0.7868    -2.0983    -0.1759 N.2     
   9 N9             1.1362    -0.7461    -0.2309 N.pl3   
  10 C10            1.7964     2.9700     0.7881 C.2     
  11 O11            2.9744     3.2666     0.8326 O.2     
  12 C12            0.8141     3.7200     1.5995 C.ar    
  13 C13           -1.2844    -3.4288     0.2471 C.ar    
  14 C14           -0.6616    -4.6665     0.1008 C.ar    
  15 C15           -1.3954    -5.8267     0.2433 C.ar    
  16 C16           -2.7470    -5.7622     0.5305 C.ar    
  17 C17           -3.3705    -4.5362     0.6763 C.ar    
  18 C18           -2.6448    -3.3698     0.5419 C.ar    
  19 C19            1.1696     4.2044     2.8593 C.ar    
  20 C20           -0.4710     3.9516     1.1066 C.ar    
  21 C21           -1.3829     4.6521     1.8689 C.ar    
  22 C22           -1.0258     5.1250     3.1191 C.ar    
  23 C23            0.2482     4.9034     3.6113 C.ar    
  24 H24           -0.5441     1.8631    -0.8533 H       
  25 H25           -0.5055     1.8446     0.9319 H       
  26 H26            2.9466    -0.7476    -1.2922 H       
  27 H27            3.0703    -0.2456     0.4118 H       
  28 H28            3.2927     1.7712    -0.8680 H       
  29 H29            1.9342     1.3311    -1.9322 H       
  30 H30           -2.0223    -0.5910     0.4379 H       
  31 H31            0.3935    -4.7179    -0.1241 H       
  32 H32           -0.9136    -6.7866     0.1302 H       
  33 H33           -3.3176    -6.6725     0.6408 H       
  34 H34           -4.4261    -4.4915     0.9001 H       
  35 H35           -3.1316    -2.4131     0.6607 H       
  36 H36            2.1637     4.0320     3.2446 H       
  37 H37           -0.7508     3.5836     0.1306 H       
  38 H38           -2.3777     4.8320     1.4887 H       
  39 H39           -1.7431     5.6735     3.7115 H       
  40 H40            0.5220     5.2788     4.5863 H       
@<TRIPOS>BOND
   1    1    2 1
   2    1    5 1
   3    1   24 1
   4    1   25 1
   5    2    6 2
   6    2    9 1
   7    3    4 1
   8    3    9 1
   9    3   26 1
  10    3   27 1
  11    4    5 1
  12    4   28 1
  13    4   29 1
  14    5   10 am
  15    6    7 1
  16    6   30 1
  17    7    8 2
  18    7   13 1
  19    8    9 1
  20   10   11 2
  21   10   12 1
  22   12   20 ar
  23   12   19 ar
  24   13   14 ar
  25   13   18 ar
  26   14   15 ar
  27   14   31 1
  28   15   16 ar
  29   15   32 1
  30   16   17 ar
  31   16   33 1
  32   17   18 ar
  33   17   34 1
  34   18   35 1
  35   19   23 ar
  36   19   36 1
  37   20   21 ar
  38   20   37 1
  39   21   22 ar
  40   21   38 1
  41   22   23 ar
  42   22   39 1
  43   23   40 1

#	End of record

