#	Name: ASD00840149
#	Creating user name:	WinNT
#	Creation time:	15. 06. 2019 18:37

#	Modifying user name:	WinNT
#	Modification time:	15. 06. 2019 18:37

#	Program:	/corina/corina34_cracker 3.40 0067  02.08.2006

@<TRIPOS>MOLECULE
ASD00840149
  66   70    0    0    0
SMALL
NO_CHARGES


@<TRIPOS>ATOM
   1 C1            -0.0441     1.3267     0.2248 C.2     
   2 N2             0.0008    -0.0049     0.0215 N.am    
   3 O3             0.9519     1.9196     0.5893 O.2     
   4 O4            -1.1916     2.0010     0.0186 O.3     
   5 N5             1.7111    -1.8594     2.1958 N.am    
   6 C6             1.6904    -0.6177     1.6836 C.2     
   7 C7             1.2505    -0.7375     0.2400 C.3     
   8 C8             1.0361    -2.2213     0.0446 C.ar    
   9 C9             0.6382    -2.9697    -1.0346 C.ar    
  10 C10            0.5275    -4.3592    -0.9149 C.ar    
  11 C11            0.8252    -4.9712     0.3091 C.ar    
  12 C12            1.2234    -4.2085     1.3856 C.ar    
  13 C13            1.3338    -2.8228     1.2646 C.ar    
  14 O14            1.9712     0.4072     2.2682 O.2     
  15 S15            2.1432    -2.2055     3.7566 S.o2    
  16 O16            2.5717    -3.5603     3.7632 O.2     
  17 O17            2.9614    -1.1293     4.1944 O.2     
  18 C18            0.6759    -2.1430     4.7301 C.ar    
  19 C19           -0.0856    -3.2837     4.9047 C.ar    
  20 C20           -1.2364    -3.2373     5.6676 C.ar    
  21 C21           -1.6278    -2.0448     6.2586 C.ar    
  22 C22           -0.8620    -0.9016     6.0819 C.ar    
  23 C23            0.2910    -0.9545     5.3228 C.ar    
  24 O24           -2.7597    -1.9965     7.0092 O.3     
  25 C25           -3.1014    -0.7351     7.5873 C.3     
  26 F26            0.7214    -6.3124     0.4350 F       
  27 C27            3.6052    -0.7729    -0.6411 C.ar    
  28 C28            2.3272    -0.2301    -0.6842 C.ar    
  29 C29            2.0560     0.7825    -1.5875 C.ar    
  30 C30            3.0779     1.2185    -2.4199 C.ar    
  31 C31            4.3244     0.6334    -2.3224 C.ar    
  32 N32            4.5528    -0.3307    -1.4507 N.ar    
  33 O33            3.8855    -1.7623     0.2440 O.3     
  34 C34            5.2178    -2.2788     0.2392 C.3     
  35 C35            5.3425    -3.3782     1.2960 C.3     
  36 C36            0.1126    -5.1493    -2.0348 C.1     
  37 N37           -0.2166    -5.7761    -2.9232 N.1     
  38 C38           -1.1406     3.3547     0.1313 C.ar    
  39 C39           -0.5667     4.1148    -0.8774 C.ar    
  40 C40           -0.5160     5.4903    -0.7605 C.ar    
  41 C41           -1.0364     6.1096     0.3608 C.ar    
  42 C42           -1.6089     5.3543     1.3675 C.ar    
  43 C43           -1.6675     3.9789     1.2525 C.ar    
  44 H44           -0.7944    -0.4782    -0.2694 H       
  45 H45            0.4107    -2.4873    -1.9737 H       
  46 H46            1.4514    -4.6856     2.3272 H       
  47 H47            0.2193    -4.2117     4.4441 H       
  48 H48           -1.8311    -4.1286     5.8034 H       
  49 H49           -1.1646     0.0280     6.5410 H       
  50 H50            0.8901    -0.0660     5.1888 H       
  51 H51           -3.2431     0.0009     6.7959 H       
  52 H52           -4.0238    -0.8356     8.1594 H       
  53 H53           -2.2981    -0.4085     8.2476 H       
  54 H54            1.0716     1.2233    -1.6439 H       
  55 H55            2.8995     2.0067    -3.1364 H       
  56 H56            5.1227     0.9686    -2.9679 H       
  57 H57            5.4437    -2.6924    -0.7437 H       
  58 H58            5.9195    -1.4760     0.4655 H       
  59 H59            4.6408    -4.1810     1.0697 H       
  60 H60            6.3588    -3.7721     1.2924 H       
  61 H61            5.1166    -2.9645     2.2789 H       
  62 H62           -0.1594     3.6314    -1.7532 H       
  63 H63           -0.0693     6.0824    -1.5455 H       
  64 H64           -0.9952     7.1851     0.4507 H       
  65 H65           -2.0144     5.8403     2.2426 H       
  66 H66           -2.1189     3.3897     2.0370 H       
@<TRIPOS>BOND
   1    1    2 am
   2    1    3 2
   3    1    4 1
   4    2    7 1
   5    2   44 1
   6    4   38 1
   7    5    6 am
   8    5   13 1
   9    5   15 am
  10    6    7 1
  11    6   14 2
  12    7    8 1
  13    7   28 1
  14    8    9 ar
  15    8   13 ar
  16    9   10 ar
  17    9   45 1
  18   10   11 ar
  19   10   36 1
  20   11   12 ar
  21   11   26 1
  22   12   13 ar
  23   12   46 1
  24   15   16 2
  25   15   17 2
  26   15   18 1
  27   18   19 ar
  28   18   23 ar
  29   19   20 ar
  30   19   47 1
  31   20   21 ar
  32   20   48 1
  33   21   22 ar
  34   21   24 1
  35   22   23 ar
  36   22   49 1
  37   23   50 1
  38   24   25 1
  39   25   51 1
  40   25   52 1
  41   25   53 1
  42   27   28 ar
  43   27   32 ar
  44   27   33 1
  45   28   29 ar
  46   29   30 ar
  47   29   54 1
  48   30   31 ar
  49   30   55 1
  50   31   32 ar
  51   31   56 1
  52   33   34 1
  53   34   35 1
  54   34   57 1
  55   34   58 1
  56   35   59 1
  57   35   60 1
  58   35   61 1
  59   36   37 3
  60   38   39 ar
  61   38   43 ar
  62   39   40 ar
  63   39   62 1
  64   40   41 ar
  65   40   63 1
  66   41   42 ar
  67   41   64 1
  68   42   43 ar
  69   42   65 1
  70   43   66 1

#	End of record

