#	Name: ASD01914444
#	Creating user name:	WinNT
#	Creation time:	15. 06. 2019 20:03

#	Modifying user name:	WinNT
#	Modification time:	15. 06. 2019 20:03

#	Program:	/corina/corina34_cracker 3.40 0067  02.08.2006

@<TRIPOS>MOLECULE
ASD01914444
  40   41    0    0    0
SMALL
NO_CHARGES


@<TRIPOS>ATOM
   1 C1            -0.4497     1.0283     0.6997 C.ar    
   2 C2            -0.2973    -0.3448     0.7679 C.ar    
   3 C3             0.6456     1.8376     0.4618 C.ar    
   4 C4             1.8969     1.2774     0.2908 C.ar    
   5 C5             2.0543    -0.1004     0.3585 C.ar    
   6 C6             0.9512    -0.9119     0.5983 C.ar    
   7 N7             3.3186    -0.6702     0.1855 N.am    
   8 C8             4.2138    -0.8292     1.3342 C.3     
   9 S9             3.8048    -1.1656    -1.3180 S.o2    
  10 C10            4.6445     0.5282     1.8271 C.2     
  11 N11            5.4636     0.6296     2.8926 N.am    
  12 O12            4.2541     1.5295     1.2649 O.2     
  13 C13            5.7875     1.8892     3.4088 C.ar    
  14 C14            4.6135     0.2912    -2.0351 C.3     
  15 O15            4.7574    -2.1878    -1.0591 O.2     
  16 O16            2.5924    -1.4504    -2.0022 O.2     
  17 Cl17           1.1421    -2.6352     0.6846 Cl      
  18 C18            5.9444     2.0606     4.7778 C.ar    
  19 C19            6.2641     3.3051     5.2849 C.ar    
  20 C20            6.4281     4.3800     4.4313 C.ar    
  21 C21            6.2725     4.2130     3.0660 C.ar    
  22 C22            5.9583     2.9690     2.5524 C.ar    
  23 C23            3.4797    -1.5691     2.4543 C.3     
  24 Cl24           6.4794     5.5655     1.9975 Cl      
  25 H25           -1.4273     1.4688     0.8281 H       
  26 H26           -1.1549    -0.9742     0.9542 H       
  27 H27            0.5228     2.9094     0.4091 H       
  28 H28            2.7517     1.9106     0.1042 H       
  29 H29            5.0913    -1.4021     1.0345 H       
  30 H30            5.8285    -0.1707     3.3017 H       
  31 H31            5.5402     0.4936    -1.4981 H       
  32 H32            4.8360     0.1031    -3.0855 H       
  33 H33            3.9503     1.1523    -1.9527 H       
  34 H34            5.8161     1.2216     5.4457 H       
  35 H35            6.3858     3.4386     6.3497 H       
  36 H36            6.6777     5.3520     4.8304 H       
  37 H37            5.8369     2.8387     1.4872 H       
  38 H38            4.1458    -1.6875     3.3089 H       
  39 H39            2.6023    -0.9962     2.7540 H       
  40 H40            3.1682    -2.5509     2.0978 H       
@<TRIPOS>BOND
   1    1    2 ar
   2    1    3 ar
   3    1   25 1
   4    2    6 ar
   5    2   26 1
   6    3    4 ar
   7    3   27 1
   8    4    5 ar
   9    4   28 1
  10    5    6 ar
  11    5    7 1
  12    6   17 1
  13    7    8 1
  14    7    9 am
  15    8   10 1
  16    8   23 1
  17    8   29 1
  18    9   14 1
  19    9   15 2
  20    9   16 2
  21   10   11 am
  22   10   12 2
  23   11   13 1
  24   11   30 1
  25   13   18 ar
  26   13   22 ar
  27   14   31 1
  28   14   32 1
  29   14   33 1
  30   18   19 ar
  31   18   34 1
  32   19   20 ar
  33   19   35 1
  34   20   21 ar
  35   20   36 1
  36   21   22 ar
  37   21   24 1
  38   22   37 1
  39   23   38 1
  40   23   39 1
  41   23   40 1

#	End of record

