#	Name: ASD00840644
#	Creating user name:	WinNT
#	Creation time:	15. 06. 2019 18:39

#	Modifying user name:	WinNT
#	Modification time:	15. 06. 2019 18:39

#	Program:	/corina/corina34_cracker 3.40 0067  02.08.2006

@<TRIPOS>MOLECULE
ASD00840644
  84   89    0    0    0
SMALL
NO_CHARGES


@<TRIPOS>ATOM
   1 N1             1.0688     1.4648    -0.7321 N.ar    
   2 C2             1.3304     0.1736    -0.8473 C.ar    
   3 C3             1.2510    -0.6660     0.2567 C.ar    
   4 C4             0.8939    -0.1336     1.4830 C.ar    
   5 C5             0.6273     1.2266     1.5620 C.ar    
   6 C6             0.7257     2.0013     0.4237 C.ar    
   7 C7             1.5495    -2.1368     0.1205 C.3     
   8 C8             1.2689    -2.8579     1.4216 C.2     
   9 C9             0.7290    -2.7460    -1.0181 C.3     
  10 C10           -0.7332    -2.4591    -0.7928 C.2     
  11 N11           -1.6578    -2.9784    -1.6247 N.am    
  12 O12           -1.0780    -1.7610     0.1370 O.2     
  13 C13           -3.0756    -2.6186    -1.4863 C.3     
  14 C14           -3.9017    -3.9037    -1.3733 C.3     
  15 C15           -3.5966    -4.8083    -2.5694 C.3     
  16 C16           -2.1134    -5.1852    -2.5610 C.3     
  17 C17           -1.2663    -3.9103    -2.6910 C.3     
  18 N18           -4.4118    -6.0272    -2.4817 N.3     
  19 C19           -4.2339    -6.8668    -3.6746 C.3     
  20 C20           -5.0355    -8.1601    -3.5091 C.3     
  21 N21           -6.4535    -7.8318    -3.3064 N.3     
  22 C22           -6.6315    -6.9922    -2.1135 C.3     
  23 C23           -5.8298    -5.6990    -2.2790 C.3     
  24 C24           -7.2687    -9.0507    -3.2186 C.3     
  25 O25            0.1973    -2.9378     1.9840 O.2     
  26 N26            2.4290    -3.3934     1.8362 N.am    
  27 C27            3.0272    -2.3586    -0.1097 C.ar    
  28 C28            3.4795    -3.1212     0.9644 C.ar    
  29 C29            3.8832    -1.9628    -1.1060 C.ar    
  30 C30            5.2333    -2.3271    -1.0492 C.ar    
  31 C31            5.6951    -3.0937     0.0276 C.ar    
  32 C32            4.8247    -3.4862     1.0217 C.ar    
  33 F33            6.9965    -3.4506     0.0917 F       
  34 C34            2.2981    -5.9638     2.8112 C.ar    
  35 C35            3.3492    -6.7716     2.4192 C.ar    
  36 C36            1.0181    -6.4809     2.8821 C.ar    
  37 C37            0.7891    -7.8058     2.5610 C.ar    
  38 C38            1.8401    -8.6135     2.1685 C.ar    
  39 C39            3.1201    -8.0964     2.0976 C.ar    
  40 H40            1.6611    -9.6486     1.9177 H       
  41 H41            4.3492    -6.3676     2.3637 H       
  42 S42            2.5912    -4.2769     3.2274 S.o2    
  43 O43            3.9590    -4.1879     3.6022 O.2     
  44 O44            1.5246    -3.8828     4.0797 O.2     
  45 O45            1.6791    -0.3362    -2.0554 O.3     
  46 C46            2.1689    -0.1605    -4.4154 C.3     
  47 C47            1.6350     0.5541    -3.1723 C.3     
  48 C48            6.1350    -1.9196    -2.0842 C.1     
  49 N49            6.8503    -1.5962    -2.9054 N.1     
  50 H50            0.8237    -0.7620     2.3586 H       
  51 H51            0.3455     1.6737     2.5039 H       
  52 H52            0.5197     3.0600     0.4799 H       
  53 H53            1.0430    -2.3095    -1.9662 H       
  54 H54            0.8879    -3.8240    -1.0441 H       
  55 H55           -3.2136    -2.0154    -0.5890 H       
  56 H56           -3.3964    -2.0538    -2.3617 H       
  57 H57           -3.6435    -4.4222    -0.4499 H       
  58 H58           -4.9628    -3.6547    -1.3668 H       
  59 H59           -3.8318    -4.2802    -3.4935 H       
  60 H60           -1.8720    -5.6916    -1.6264 H       
  61 H61           -1.9017    -5.8483    -3.3998 H       
  62 H62           -1.4407    -3.4534    -3.6651 H       
  63 H63           -0.2106    -4.1607    -2.5864 H       
  64 H64           -4.5885    -6.3292    -4.5539 H       
  65 H65           -3.1776    -7.1068    -3.7961 H       
  66 H66           -4.9283    -8.7716    -4.4050 H       
  67 H67           -4.6627    -8.7110    -2.6456 H       
  68 H68           -7.6878    -6.7523    -1.9920 H       
  69 H69           -6.2768    -7.5299    -1.2342 H       
  70 H70           -5.9371    -5.0875    -1.3830 H       
  71 H71           -6.2026    -5.1480    -3.1425 H       
  72 H72           -6.9269    -9.6568    -2.3796 H       
  73 H73           -8.3136    -8.7790    -3.0687 H       
  74 H74           -7.1705    -9.6208    -4.1425 H       
  75 H75            3.5162    -1.3720    -1.9322 H       
  76 H76            5.1862    -4.0776     1.8500 H       
  77 H77            0.1970    -5.8498     3.1886 H       
  78 H78           -0.2108    -8.2099     2.6170 H       
  79 H79            3.9412    -8.7275     1.7914 H       
  80 H80            3.1662    -0.5498    -4.2105 H       
  81 H81            1.5037    -0.9840    -4.6749 H       
  82 H82            2.2173     0.5432    -5.2464 H       
  83 H83            0.6056     0.8670    -3.3472 H       
  84 H84            2.2504     1.4292    -2.9639 H       
@<TRIPOS>BOND
   1    1    2 ar
   2    1    6 ar
   3    2    3 ar
   4    2   45 1
   5    3    4 ar
   6    3    7 1
   7    4    5 ar
   8    4   50 1
   9    5    6 ar
  10    5   51 1
  11    6   52 1
  12    7    8 1
  13    7    9 1
  14    7   27 1
  15    8   25 2
  16    8   26 am
  17    9   10 1
  18    9   53 1
  19    9   54 1
  20   10   11 am
  21   10   12 2
  22   11   13 1
  23   11   17 1
  24   13   14 1
  25   13   55 1
  26   13   56 1
  27   14   15 1
  28   14   57 1
  29   14   58 1
  30   15   16 1
  31   15   18 1
  32   15   59 1
  33   16   17 1
  34   16   60 1
  35   16   61 1
  36   17   62 1
  37   17   63 1
  38   18   19 1
  39   18   23 1
  40   19   20 1
  41   19   64 1
  42   19   65 1
  43   20   21 1
  44   20   66 1
  45   20   67 1
  46   21   22 1
  47   21   24 1
  48   22   23 1
  49   22   68 1
  50   22   69 1
  51   23   70 1
  52   23   71 1
  53   24   72 1
  54   24   73 1
  55   24   74 1
  56   26   42 am
  57   26   28 1
  58   27   28 ar
  59   27   29 ar
  60   28   32 ar
  61   29   30 ar
  62   29   75 1
  63   30   31 ar
  64   30   48 1
  65   31   32 ar
  66   31   33 1
  67   32   76 1
  68   34   35 ar
  69   34   36 ar
  70   34   42 1
  71   35   41 1
  72   35   39 ar
  73   36   37 ar
  74   36   77 1
  75   37   38 ar
  76   37   78 1
  77   38   39 ar
  78   38   40 1
  79   39   79 1
  80   42   43 2
  81   42   44 2
  82   45   47 1
  83   46   47 1
  84   46   80 1
  85   46   81 1
  86   46   82 1
  87   47   83 1
  88   47   84 1
  89   48   49 3

#	End of record

