#	Name: ASD01881545
#	Creating user name:	WinNT
#	Creation time:	15. 06. 2019 19:42

#	Modifying user name:	WinNT
#	Modification time:	15. 06. 2019 19:42

#	Program:	/corina/corina34_cracker 3.40 0067  02.08.2006

@<TRIPOS>MOLECULE
ASD01881545
  58   62    0    0    0
SMALL
NO_CHARGES


@<TRIPOS>ATOM
   1 C1            -0.0136     1.4214     0.2278 C.ar    
   2 C2            -0.7391     0.9117    -0.8473 C.ar    
   3 C3            -1.9145     0.2476    -0.6391 C.ar    
   4 C4            -2.3968     0.0747     0.6539 C.ar    
   5 C5            -1.6763     0.5825     1.7484 C.ar    
   6 C6            -0.4689     1.2574     1.5196 C.ar    
   7 N7            -3.5145    -0.5302     1.1817 N.pl3   
   8 N8            -3.4344    -0.3694     2.5729 N.2     
   9 N9            -2.3621     0.2768     2.8679 N.2     
  10 C10           -4.5789    -1.2078     0.4372 C.3     
  11 O11            1.1542     2.0802     0.0022 O.3     
  12 Br12           0.5229     1.9511     2.9725 Br      
  13 C13            2.3125     1.3746     0.0920 C.ar    
  14 C14            3.5324     2.0261    -0.0160 C.ar    
  15 C15            3.1601     5.6453     0.8439 C.3     
  16 C16            4.7089     1.3076     0.0754 C.ar    
  17 C17           -4.2278    -2.6886     0.2796 C.3     
  18 C18           -5.2729    -3.5971    -0.3711 C.3     
  19 C19           -4.0065    -3.2149    -1.1399 C.3     
  20 C20            4.6708    -0.0618     0.2746 C.ar    
  21 C21            3.4537    -0.7137     0.3821 C.ar    
  22 C22            2.2759     0.0028     0.2973 C.ar    
  23 C23            3.5743     3.5168    -0.2334 C.3     
  24 N24            3.3621     4.2045     1.0472 N.3     
  25 C25            4.4733     3.9477     1.9731 C.3     
  26 C26            4.1312     4.5278     3.3496 C.3     
  27 N27            3.7747     5.9451     3.1839 N.am    
  28 C28            2.7642     6.2949     2.1741 C.3     
  29 F29            5.8221    -0.7631     0.3637 F       
  30 S30            4.4916     7.1158     4.1101 S.o2    
  31 O31            3.5374     8.1682     4.1450 O.2     
  32 O32            4.8767     6.4364     5.2973 O.2     
  33 C33            5.9537     7.6134     3.1586 C.3     
  34 H34           -0.3692     1.0432    -1.8534 H       
  35 H35           -2.4697    -0.1430    -1.4790 H       
  36 H36           -5.5192    -1.1132     0.9804 H       
  37 H37           -4.6806    -0.7517    -0.5475 H       
  38 H38            4.0843     6.0945     0.4806 H       
  39 H39            2.3671     5.8017     0.1125 H       
  40 H40            5.6588     1.8145    -0.0090 H       
  41 H41           -3.6166    -3.1142     1.0755 H       
  42 H42           -5.3491    -4.6204    -0.0036 H       
  43 H43           -6.2106    -3.1397    -0.6869 H       
  44 H44           -4.1109    -2.5062    -1.9614 H       
  45 H45           -3.2494    -3.9869    -1.2781 H       
  46 H46            3.4255    -1.7822     0.5368 H       
  47 H47            1.3269    -0.5058     0.3812 H       
  48 H48            4.5459     3.7975    -0.6399 H       
  49 H49            2.7905     3.8039    -0.9343 H       
  50 H50            4.6328     2.8730     2.0608 H       
  51 H51            5.3793     4.4206     1.5941 H       
  52 H52            3.2874     3.9854     3.7762 H       
  53 H53            4.9957     4.4423     4.0081 H       
  54 H54            2.7248     7.3777     2.0554 H       
  55 H55            1.7890     5.9224     2.4876 H       
  56 H56            5.6417     7.9973     2.1873 H       
  57 H57            6.4925     8.3907     3.7005 H       
  58 H58            6.6053     6.7513     3.0164 H       
@<TRIPOS>BOND
   1    1    2 ar
   2    1   11 1
   3    1    6 ar
   4    2    3 ar
   5    2   34 1
   6    3    4 ar
   7    3   35 1
   8    4    5 ar
   9    4    7 1
  10    5    6 ar
  11    5    9 1
  12    6   12 1
  13    7    8 1
  14    7   10 1
  15    8    9 2
  16   10   17 1
  17   10   36 1
  18   10   37 1
  19   11   13 1
  20   13   14 ar
  21   13   22 ar
  22   14   23 1
  23   14   16 ar
  24   15   24 1
  25   15   28 1
  26   15   38 1
  27   15   39 1
  28   16   20 ar
  29   16   40 1
  30   17   18 1
  31   17   19 1
  32   17   41 1
  33   18   19 1
  34   18   42 1
  35   18   43 1
  36   19   44 1
  37   19   45 1
  38   20   21 ar
  39   20   29 1
  40   21   22 ar
  41   21   46 1
  42   22   47 1
  43   23   24 1
  44   23   48 1
  45   23   49 1
  46   24   25 1
  47   25   26 1
  48   25   50 1
  49   25   51 1
  50   26   27 1
  51   26   52 1
  52   26   53 1
  53   27   28 1
  54   27   30 am
  55   28   54 1
  56   28   55 1
  57   30   31 2
  58   30   32 2
  59   30   33 1
  60   33   56 1
  61   33   57 1
  62   33   58 1

#	End of record

