#	Name: ASD08170560
#	Creating user name:	WinNT
#	Creation time:	15. 06. 2019 21:17

#	Modifying user name:	WinNT
#	Modification time:	15. 06. 2019 21:17

#	Program:	/corina/corina34_cracker 3.40 0067  02.08.2006

@<TRIPOS>MOLECULE
ASD08170560
  84   87    0    0    0
SMALL
NO_CHARGES


@<TRIPOS>ATOM
   1 N1            -0.0159     1.3151     0.0224 N.ar    
   2 C2             0.0017    -0.0034     0.0126 C.ar    
   3 C3            -1.2931    -0.7743     0.0245 C.3     
   4 C4            -4.2985    -0.6742     2.4294 C.3     
   5 C5            -5.5933    -1.4451     2.4413 C.2     
   6 N6            -5.8035    -2.5762     3.0363 N.2     
   7 N7            -6.9627    -3.0646     2.9280 N.2     
   8 C8            -7.8360    -2.3972     2.2359 C.2     
   9 S9            -7.0971    -0.9655     1.6537 S.3     
  10 N10           -9.1541    -2.7788     2.0098 N.am    
  11 C11           -3.4531    -1.1156     1.2330 C.3     
  12 C12           -2.1385    -0.3329     1.2209 C.3     
  13 C13            1.2122    -0.6808    -0.0092 C.ar    
  14 C14            2.3785     0.0690    -0.0199 C.ar    
  15 C15            2.2616     1.4575    -0.0082 C.ar    
  16 N16            1.0600     2.0148     0.0125 N.ar    
  17 N17            3.4043     2.2567    -0.0179 N.am    
  18 C18            3.2889     3.5963    -0.1113 C.2     
  19 O19            2.1992     4.1007    -0.2812 O.2     
  20 C20            4.5141     4.4673    -0.0047 C.3     
  21 C21            4.1152     5.9141    -0.1410 C.ar    
  22 C22            3.2279     6.4730     0.7597 C.ar    
  23 C23            2.8588     7.8005     0.6388 C.ar    
  24 C24            3.3774     8.5727    -0.3842 C.ar    
  25 C25            4.2707     8.0124    -1.2911 C.ar    
  26 C26            4.6415     6.6815    -1.1626 C.ar    
  27 C27           -9.6207    -3.9313     2.5299 C.2     
  28 O28           -8.8910    -4.6356     3.1951 O.2     
  29 C29          -11.0490    -4.3448     2.2849 C.3     
  30 C30          -11.3155    -5.6605     2.9696 C.ar    
  31 C31          -11.7763    -5.6806     4.2728 C.ar    
  32 C32          -12.0208    -6.8874     4.9009 C.ar    
  33 C33          -11.8049    -8.0742     4.2258 C.ar    
  34 C34          -11.3450    -8.0541     2.9223 C.ar    
  35 C35          -11.1046    -6.8472     2.2927 C.ar    
  36 N36            4.7985     8.7912    -2.3290 N.am    
  37 C37            4.1608     8.8554    -3.5146 C.2     
  38 C38            5.1793     4.2475     1.3555 C.3     
  39 C39            6.0436     9.5358    -2.1257 C.3     
  40 F40            3.0168     9.8693    -0.5028 F       
  41 O41            3.1280     8.2378    -3.6833 O.2     
  42 O42            4.6682     9.6040    -4.5123 O.3     
  43 C43            3.9283     9.6265    -5.7614 C.3     
  44 C44            2.5216    10.1738    -5.5113 C.3     
  45 C45            4.6529    10.5230    -6.7674 C.3     
  46 C46            3.8307     8.2062    -6.3219 C.3     
  47 H47           -1.8400    -0.5803    -0.8982 H       
  48 H48           -1.0805    -1.8405     0.1035 H       
  49 H49           -4.5111     0.3919     2.3504 H       
  50 H50           -3.7516    -0.8682     3.3520 H       
  51 H51           -9.7377    -2.2154     1.4778 H       
  52 H52           -3.2405    -2.1818     1.3119 H       
  53 H53           -4.0000    -0.9216     0.3103 H       
  54 H54           -1.5916    -0.5270     2.1436 H       
  55 H55           -2.3511     0.7332     1.1419 H       
  56 H56            1.2451    -1.7603    -0.0171 H       
  57 H57            3.3472    -0.4082    -0.0365 H       
  58 H58            4.2821     1.8485     0.0427 H       
  59 H59            5.2148     4.2073    -0.7981 H       
  60 H60            2.8216     5.8716     1.5595 H       
  61 H61            2.1648     8.2340     1.3436 H       
  62 H62            5.3349     6.2435    -1.8653 H       
  63 H63          -11.7208    -3.5848     2.6839 H       
  64 H64          -11.2174    -4.4522     1.2133 H       
  65 H65          -11.9450    -4.7534     4.8003 H       
  66 H66          -12.3802    -6.9031     5.9193 H       
  67 H67          -11.9953    -9.0172     4.7168 H       
  68 H68          -11.1760    -8.9814     2.3950 H       
  69 H69          -10.7453    -6.8315     1.2744 H       
  70 H70            5.4678     3.2010     1.4540 H       
  71 H71            6.0655     4.8775     1.4325 H       
  72 H72            4.4786     4.5075     2.1489 H       
  73 H73            6.8909     8.9112    -2.4087 H       
  74 H74            6.0337    10.4353    -2.7412 H       
  75 H75            6.1327     9.8150    -1.0758 H       
  76 H76            2.5911    11.1856    -5.1119 H       
  77 H77            1.9662    10.1906    -6.4490 H       
  78 H78            2.0054     9.5350    -4.7946 H       
  79 H79            5.6551    10.1331    -6.9456 H       
  80 H80            4.0975    10.5399    -7.7051 H       
  81 H81            4.7225    11.5349    -6.3681 H       
  82 H82            3.3144     7.5674    -5.6053 H       
  83 H83            3.2753     8.2230    -7.2597 H       
  84 H84            4.8328     7.8162    -6.5002 H       
@<TRIPOS>BOND
   1    1    2 ar
   2    1   16 ar
   3    2    3 1
   4    2   13 ar
   5    3   12 1
   6    3   47 1
   7    3   48 1
   8    4    5 1
   9    4   11 1
  10    4   49 1
  11    4   50 1
  12    5    6 2
  13    5    9 1
  14    6    7 1
  15    7    8 2
  16    8    9 1
  17    8   10 1
  18   10   27 am
  19   10   51 1
  20   11   12 1
  21   11   52 1
  22   11   53 1
  23   12   54 1
  24   12   55 1
  25   13   14 ar
  26   13   56 1
  27   14   15 ar
  28   14   57 1
  29   15   16 ar
  30   15   17 1
  31   17   18 am
  32   17   58 1
  33   18   19 2
  34   18   20 1
  35   20   21 1
  36   20   38 1
  37   20   59 1
  38   21   22 ar
  39   21   26 ar
  40   22   23 ar
  41   22   60 1
  42   23   24 ar
  43   23   61 1
  44   24   25 ar
  45   24   40 1
  46   25   26 ar
  47   25   36 1
  48   26   62 1
  49   27   28 2
  50   27   29 1
  51   29   30 1
  52   29   63 1
  53   29   64 1
  54   30   31 ar
  55   30   35 ar
  56   31   32 ar
  57   31   65 1
  58   32   33 ar
  59   32   66 1
  60   33   34 ar
  61   33   67 1
  62   34   35 ar
  63   34   68 1
  64   35   69 1
  65   36   37 am
  66   36   39 1
  67   37   41 2
  68   37   42 1
  69   38   70 1
  70   38   71 1
  71   38   72 1
  72   39   73 1
  73   39   74 1
  74   39   75 1
  75   42   43 1
  76   43   44 1
  77   43   45 1
  78   43   46 1
  79   44   76 1
  80   44   77 1
  81   44   78 1
  82   45   79 1
  83   45   80 1
  84   45   81 1
  85   46   82 1
  86   46   83 1
  87   46   84 1

#	End of record

