#	Name: ASD09120010
#	Creating user name:	WinNT
#	Creation time:	15. 06. 2019 21:21

#	Modifying user name:	WinNT
#	Modification time:	15. 06. 2019 21:21

#	Program:	/corina/corina34_cracker 3.40 0067  02.08.2006

@<TRIPOS>MOLECULE
ASD09120010
  38   40    0    0    0
SMALL
NO_CHARGES


@<TRIPOS>ATOM
   1 C1            -0.0009     1.3752     0.0528 C.ar    
   2 C2             0.0218    -0.0040     0.0530 C.ar    
   3 C3             1.0657    -0.6827    -0.5508 C.ar    
   4 C4             2.0933     0.0152    -1.1590 C.ar    
   5 C5             2.0838     1.3962    -1.1670 C.ar    
   6 C6             1.0323     2.0873    -0.5589 C.ar    
   7 N7            -1.0732    -0.7600     0.7013 N.pl3   
   8 O8            -1.9926    -0.1643     1.2336 O.2     
   9 O9            -1.0549    -1.9779     0.7025 O.2     
  10 C10            1.0145     3.5646    -0.5630 C.2     
  11 O11            1.9158     4.1818    -1.0965 O.2     
  12 N12           -0.0008     4.2279     0.0248 N.am    
  13 C13            0.0394     5.6203     0.1241 C.ar    
  14 Cl14           3.3747     2.2711    -1.9298 Cl      
  15 C15            1.2881     7.6482     0.4096 C.ar    
  16 C16            1.2505     6.2704     0.3111 C.ar    
  17 C17           -1.1415     6.3661     0.0295 C.ar    
  18 C18           -1.0904     7.7540     0.1298 C.ar    
  19 C19            0.1214     8.3869     0.3217 C.ar    
  20 C20           -2.4406     5.6814    -0.1771 C.ar    
  21 C21           -3.5276     5.9815     0.6421 C.ar    
  22 C22           -4.7343     5.3415     0.4450 C.ar    
  23 C23           -4.8661     4.4034    -0.5631 C.ar    
  24 C24           -3.7907     4.1016    -1.3792 C.ar    
  25 C25           -2.5809     4.7395    -1.1949 C.ar    
  26 H26           -0.8186     1.9030     0.5210 H       
  27 H27            1.0782    -1.7627    -0.5467 H       
  28 H28            2.9049    -0.5209    -1.6284 H       
  29 H29           -0.7596     3.7381     0.3788 H       
  30 H30            2.2328     8.1508     0.5556 H       
  31 H31            2.1645     5.6993     0.3802 H       
  32 H32           -1.9980     8.3349     0.0573 H       
  33 H33            0.1594     9.4634     0.4004 H       
  34 H34           -3.4256     6.7132     1.4299 H       
  35 H35           -5.5772     5.5732     1.0791 H       
  36 H36           -5.8121     3.9045    -0.7133 H       
  37 H37           -3.8993     3.3684    -2.1646 H       
  38 H38           -1.7431     4.5061    -1.8353 H       
@<TRIPOS>BOND
   1    1    2 ar
   2    1    6 ar
   3    1   26 1
   4    2    3 ar
   5    2    7 1
   6    3    4 ar
   7    3   27 1
   8    4    5 ar
   9    4   28 1
  10    5    6 ar
  11    5   14 1
  12    6   10 1
  13    7    8 2
  14    7    9 2
  15   10   11 2
  16   10   12 am
  17   12   13 1
  18   12   29 1
  19   13   17 ar
  20   13   16 ar
  21   15   16 ar
  22   15   19 ar
  23   15   30 1
  24   16   31 1
  25   17   18 ar
  26   17   20 1
  27   18   19 ar
  28   18   32 1
  29   19   33 1
  30   20   21 ar
  31   20   25 ar
  32   21   22 ar
  33   21   34 1
  34   22   23 ar
  35   22   35 1
  36   23   24 ar
  37   23   36 1
  38   24   25 ar
  39   24   37 1
  40   25   38 1

#	End of record

