#	Name: ASD03240964
#	Creating user name:	WinNT
#	Creation time:	15. 06. 2019 20:35

#	Modifying user name:	WinNT
#	Modification time:	15. 06. 2019 20:35

#	Program:	/corina/corina34_cracker 3.40 0067  02.08.2006

@<TRIPOS>MOLECULE
ASD03240964
  61   67    0    0    0
SMALL
NO_CHARGES


@<TRIPOS>ATOM
   1 C1            -0.1820     0.3183     1.5861 C.3     
   2 C2             0.1599    -1.1793     1.5134 C.3     
   3 C3             1.5781    -0.7972     1.9690 C.3     
   4 C4             1.3147     0.5905     1.3609 C.3     
   5 O5            -1.0133     0.7683     0.5144 O.3     
   6 C6             2.6660    -1.5676     1.2662 C.ar    
   7 C7             3.8579    -1.8274     1.9189 C.ar    
   8 C8             4.8578    -2.5322     1.2808 C.ar    
   9 C9             4.6650    -2.9832    -0.0251 C.ar    
  10 C10            3.4609    -2.7180    -0.6779 C.ar    
  11 C11            2.4666    -2.0171    -0.0270 C.ar    
  12 N12            6.1185    -6.6705    -2.7168 N.pl3   
  13 C13            7.1330    -7.3452    -3.3428 C.2     
  14 N14            8.4067    -6.9207    -3.2909 N.2     
  15 C15            8.7542    -5.8408    -2.6414 C.2     
  16 C16            7.7263    -5.0647    -1.9460 C.ar    
  17 N17            8.0284    -3.9587    -1.2714 N.ar    
  18 C18            7.0685    -3.2854    -0.6548 C.ar    
  19 C19            5.7341    -3.7397    -0.7158 C.ar    
  20 N20            5.4337    -4.8433    -1.3898 N.ar    
  21 C21            6.3907    -5.5182    -2.0061 C.ar    
  22 C22            6.5571    -8.4457    -3.9649 C.2     
  23 C23            5.1933    -8.4148    -3.7007 C.2     
  24 N24            4.9282    -7.3677    -2.9565 N.2     
  25 C25            7.3966    -2.0526     0.0992 C.ar    
  26 C26            8.4928    -2.0299     0.9606 C.ar    
  27 C27            8.7934    -0.8791     1.6601 C.ar    
  28 C28            8.0096     0.2507     1.5081 C.ar    
  29 C29            6.9207     0.2342     0.6550 C.ar    
  30 C30            6.6137    -0.9091    -0.0543 C.ar    
  31 C31            4.1840    -9.4237    -4.1849 C.3     
  32 Br32           7.4658    -9.7512    -4.9876 Br      
  33 C33           -0.6865     0.7658     2.9594 C.3     
  34 C34           -0.9074     2.2640     3.1770 C.3     
  35 C35           -2.1081     1.3254     3.0419 C.3     
  36 N36            1.7422    -0.7785     3.4287 N.3     
  37 H37           -0.3826    -1.7867     2.2378 H       
  38 H38            0.1209    -1.5876     0.5035 H       
  39 H39            1.5913     0.6660     0.3093 H       
  40 H40            1.7044     1.4119     1.9622 H       
  41 H41           -0.6956     0.5146    -0.3630 H       
  42 H42            4.0061    -1.4774     2.9298 H       
  43 H43            5.7879    -2.7341     1.7913 H       
  44 H44            3.3057    -3.0646    -1.6889 H       
  45 H45            1.5322    -1.8152    -0.5295 H       
  46 H46            9.7869    -5.5255    -2.6178 H       
  47 H47            9.1052    -2.9114     1.0803 H       
  48 H48            9.6420    -0.8604     2.3279 H       
  49 H49            8.2484     1.1490     2.0580 H       
  50 H50            6.3122     1.1191     0.5406 H       
  51 H51            5.7662    -0.9193    -0.7237 H       
  52 H52            4.0924   -10.2261    -3.4530 H       
  53 H53            3.2171    -8.9372    -4.3137 H       
  54 H54            4.5124    -9.8373    -5.1384 H       
  55 H55           -0.3251     0.1821     3.8061 H       
  56 H56           -0.6918     2.6660     4.1670 H       
  57 H57           -0.6934     2.9309     2.3418 H       
  58 H58           -2.6839     1.3747     2.1177 H       
  59 H59           -2.6824     1.1099     3.9429 H       
  60 H60            2.7146    -0.6871     3.6820 H       
  61 H61            1.1895    -0.0444     3.8453 H       
@<TRIPOS>BOND
   1    1    2 1
   2    1    4 1
   3    1    5 1
   4    1   33 1
   5    2    3 1
   6    2   37 1
   7    2   38 1
   8    3    4 1
   9    3    6 1
  10    3   36 1
  11    4   39 1
  12    4   40 1
  13    5   41 1
  14    6    7 ar
  15    6   11 ar
  16    7    8 ar
  17    7   42 1
  18    8    9 ar
  19    8   43 1
  20    9   10 ar
  21    9   19 1
  22   10   11 ar
  23   10   44 1
  24   11   45 1
  25   12   13 1
  26   12   21 1
  27   12   24 1
  28   13   14 1
  29   13   22 2
  30   14   15 2
  31   15   16 1
  32   15   46 1
  33   16   17 ar
  34   16   21 ar
  35   17   18 ar
  36   18   19 ar
  37   18   25 1
  38   19   20 ar
  39   20   21 ar
  40   22   23 1
  41   22   32 1
  42   23   24 2
  43   23   31 1
  44   25   26 ar
  45   25   30 ar
  46   26   27 ar
  47   26   47 1
  48   27   28 ar
  49   27   48 1
  50   28   29 ar
  51   28   49 1
  52   29   30 ar
  53   29   50 1
  54   30   51 1
  55   31   52 1
  56   31   53 1
  57   31   54 1
  58   33   34 1
  59   33   35 1
  60   33   55 1
  61   34   35 1
  62   34   56 1
  63   34   57 1
  64   35   58 1
  65   35   59 1
  66   36   60 1
  67   36   61 1

#	End of record

