#	Name: ASD01028116
#	Creating user name:	WinNT
#	Creation time:	15. 06. 2019 18:56

#	Modifying user name:	WinNT
#	Modification time:	15. 06. 2019 18:56

#	Program:	/corina/corina34_cracker 3.40 0067  02.08.2006

@<TRIPOS>MOLECULE
ASD01028116
  18   18    0    0    0
SMALL
NO_CHARGES


@<TRIPOS>ATOM
   1 N1            -0.0180     1.4760     0.0102 N.pl3   
   2 C2             0.0021    -0.0041     0.0020 C.ar    
   3 C3             0.0232    -0.7125     1.2101 C.ar    
   4 C4             0.0254     0.0110     2.4882 C.2     
   5 C5            -0.0057    -0.6894    -1.1959 C.ar    
   6 C6             0.0127    -2.0841    -1.2024 C.ar    
   7 C7             0.0390    -2.7882    -0.0048 C.ar    
   8 C8             0.0416    -2.1121     1.1959 C.ar    
   9 O9            -0.0318    -0.0045    -2.3706 O.3     
  10 O10            0.0046    -2.7557    -2.3823 O.3     
  11 Br11           0.0639    -4.6790    -0.0225 Br      
  12 O12            1.0284     2.0993     0.0035 O.2     
  13 O13           -1.0810     2.0706     0.0184 O.2     
  14 O14            0.0437    -0.6042     3.5333 O.2     
  15 H15            0.0109     1.0909     2.4974 H       
  16 H16            0.0624    -2.6616     2.1254 H       
  17 H17            0.8438     0.2056    -2.7229 H       
  18 H18            0.8854    -2.9385    -2.7369 H       
@<TRIPOS>BOND
   1    1    2 1
   2    1   12 2
   3    1   13 2
   4    2    3 ar
   5    2    5 ar
   6    3    4 1
   7    3    8 ar
   8    4   14 2
   9    4   15 1
  10    5    6 ar
  11    5    9 1
  12    6    7 ar
  13    6   10 1
  14    7    8 ar
  15    7   11 1
  16    8   16 1
  17    9   17 1
  18   10   18 1

#	End of record

