#	Name: ASD07930705
#	Creating user name:	WinNT
#	Creation time:	15. 06. 2019 21:13

#	Modifying user name:	WinNT
#	Modification time:	15. 06. 2019 21:13

#	Program:	/corina/corina34_cracker 3.40 0067  02.08.2006

@<TRIPOS>MOLECULE
ASD07930705
  40   42    0    0    0
SMALL
NO_CHARGES


@<TRIPOS>ATOM
   1 C1            -0.0178     1.4608     0.0101 C.3     
   2 N2             0.8031    -0.4153    -2.1619 N.2     
   3 N3            -0.8796    -1.7833    -1.2911 N.pl3   
   4 C4            -0.9005    -2.8248    -0.2586 C.3     
   5 C5            -1.2102    -2.1834     1.1010 C.3     
   6 S6             0.0275    -0.8859     1.4156 S.o2    
   7 N7             0.0021    -0.0041     0.0020 N.am    
   8 C8             0.0002    -0.7257    -1.1832 C.2     
   9 C9             0.4646    -3.5132    -0.1997 C.3     
  10 O10           -0.4323     0.0192     2.4099 O.2     
  11 O11            1.3354    -1.4387     1.4687 O.2     
  12 C12           -1.9634    -3.8404    -0.5898 C.2     
  13 C13           -1.9980    -4.5830    -1.7007 C.2     
  14 S14           -3.3410    -4.2324     0.4306 S.3     
  15 C15           -3.9128    -5.4131    -0.7410 C.2     
  16 C16           -3.0684    -5.4496    -1.7910 C.2     
  17 C17           -5.1292    -6.2408    -0.5946 C.ar    
  18 C18           -5.4819    -7.1454    -1.5935 C.ar    
  19 C19           -6.6299    -7.9230    -1.4486 C.ar    
  20 C20           -7.4193    -7.7911    -0.3040 C.ar    
  21 C21           -7.0638    -6.8911     0.6843 C.ar    
  22 C22           -5.9232    -6.1213     0.5479 C.ar    
  23 C23           -6.9992    -8.8547    -2.4714 C.1     
  24 N24           -7.2922    -9.5938    -3.2828 N.1     
  25 Cl25          -0.7864    -4.4657    -2.9385 Cl      
  26 F26           -7.8310    -6.7675     1.7894 F       
  27 H27            1.0048     1.8381     0.0023 H       
  28 H28           -0.5450     1.8219    -0.8730 H       
  29 H29           -0.5280     1.8123     0.9069 H       
  30 H30            0.7883    -0.9307    -2.9835 H       
  31 H31           -1.4804    -1.8399    -2.0505 H       
  32 H32           -2.2071    -1.7432     1.0811 H       
  33 H33           -1.1573    -2.9394     1.8845 H       
  34 H34            1.2322    -2.7780     0.0418 H       
  35 H35            0.4485    -4.2871     0.5677 H       
  36 H36            0.6857    -3.9650    -1.1667 H       
  37 H37           -3.2184    -6.1042    -2.6369 H       
  38 H38           -4.8686    -7.2437    -2.4770 H       
  39 H39           -8.3092    -8.3926    -0.1906 H       
  40 H40           -5.6505    -5.4202     1.3228 H       
@<TRIPOS>BOND
   1    1    7 1
   2    1   27 1
   3    1   28 1
   4    1   29 1
   5    2    8 2
   6    2   30 1
   7    3    4 1
   8    3    8 1
   9    3   31 1
  10    4    5 1
  11    4    9 1
  12    4   12 1
  13    5    6 1
  14    5   32 1
  15    5   33 1
  16    6    7 am
  17    6   10 2
  18    6   11 2
  19    7    8 1
  20    9   34 1
  21    9   35 1
  22    9   36 1
  23   12   14 1
  24   12   13 2
  25   13   25 1
  26   13   16 1
  27   14   15 1
  28   15   16 2
  29   15   17 1
  30   16   37 1
  31   17   18 ar
  32   17   22 ar
  33   18   19 ar
  34   18   38 1
  35   19   20 ar
  36   19   23 1
  37   20   21 ar
  38   20   39 1
  39   21   22 ar
  40   21   26 1
  41   22   40 1
  42   23   24 3

#	End of record

