#	Name: ASD03240625
#	Creating user name:	WinNT
#	Creation time:	15. 06. 2019 20:35

#	Modifying user name:	WinNT
#	Modification time:	15. 06. 2019 20:35

#	Program:	/corina/corina34_cracker 3.40 0067  02.08.2006

@<TRIPOS>MOLECULE
ASD03240625
  65   72    0    0    0
SMALL
NO_CHARGES


@<TRIPOS>ATOM
   1 C1            -0.0166     1.3755     0.0096 C.ar    
   2 C2             0.0021    -0.0041     0.0020 C.ar    
   3 N3             1.1422    -0.6683    -0.0058 N.ar    
   4 C4             2.3145    -0.0481    -0.0058 C.ar    
   5 C5             2.3702     1.3442    -0.0124 C.ar    
   6 C6             1.1860     2.0698     0.0018 C.ar    
   7 N7             3.4820    -0.8058     0.0220 N.pl3   
   8 C8             4.3591    -0.7195     1.0997 C.ar    
   9 C9             4.9952     0.4888     1.4037 C.ar    
  10 C10            4.7638     1.6833     0.5621 C.2     
  11 N11            3.5938     2.0276    -0.0512 N.pl3   
  12 C12            4.6049    -1.8393     1.8830 C.ar    
  13 C13            5.4651    -1.7542     2.9611 C.ar    
  14 C14            6.0858    -0.5561     3.2701 C.ar    
  15 C15            5.8561     0.5649     2.4983 C.ar    
  16 N16            5.6754     2.5936     0.2852 N.2     
  17 C17            5.1450     3.5397    -0.5056 C.2     
  18 C18            3.8220     3.2033    -0.7366 C.2     
  19 C19            2.8489     3.9531    -1.5541 C.ar    
  20 C20            2.7497     5.3411    -1.4298 C.ar    
  21 C21            2.0265     3.2791    -2.4603 C.ar    
  22 C22            1.1196     3.9865    -3.2215 C.ar    
  23 C23            1.0232     5.3607    -3.0892 C.ar    
  24 C24            1.8382     6.0355    -2.1974 C.ar    
  25 C25            5.8487     4.7293    -1.0360 C.ar    
  26 C26            0.0302     6.1266    -3.9249 C.3     
  27 C27            6.8106     5.3592    -0.2636 C.ar    
  28 N28           -1.0286     5.2720    -4.4787 N.3     
  29 C29           -0.4992     7.3983    -3.2411 C.3     
  30 C30           -0.4033     8.0822    -4.6151 C.3     
  31 C31            0.6840     7.0523    -4.9643 C.3     
  32 C32            7.4704     6.4833    -0.7740 C.ar    
  33 C33            7.1456     6.9607    -2.0718 C.ar    
  34 C34            6.1647     6.2993    -2.8305 C.ar    
  35 C35            5.5389     5.2066    -2.3214 C.ar    
  36 C36            8.4568     7.1687    -0.0398 C.ar    
  37 C37            9.0542     8.2549    -0.6037 C.ar    
  38 N38            8.7313     8.6793    -1.8176 N.ar    
  39 C39            7.8219     8.0896    -2.5587 C.ar    
  40 H40           -0.9556     1.9091     0.0170 H       
  41 H41           -0.9306    -0.5486     0.0028 H       
  42 H42            1.2002     3.1497     0.0064 H       
  43 H43            3.6862    -1.4002    -0.7169 H       
  44 H44            4.1239    -2.7776     1.6492 H       
  45 H45            5.6540    -2.6281     3.5668 H       
  46 H46            6.7524    -0.4984     4.1179 H       
  47 H47            6.3417     1.4985     2.7413 H       
  48 H48            3.3849     5.8691    -0.7339 H       
  49 H49            2.1010     2.2068    -2.5648 H       
  50 H50            0.4835     3.4669    -3.9227 H       
  51 H51            1.7576     7.1080    -2.0994 H       
  52 H52            7.0489     4.9872     0.7219 H       
  53 H53           -0.6373     4.4636    -4.9386 H       
  54 H54           -1.6842     4.9983    -3.7622 H       
  55 H55           -1.5201     7.3025    -2.8714 H       
  56 H56            0.1838     7.8116    -2.4990 H       
  57 H57           -1.3073     7.9835    -5.2160 H       
  58 H58           -0.0350     9.1070    -4.5680 H       
  59 H59            1.6905     7.3711    -4.6933 H       
  60 H60            0.6183     6.6772    -5.9856 H       
  61 H61            5.9124     6.6564    -3.8180 H       
  62 H62            4.7860     4.7026    -2.9092 H       
  63 H63            8.7340     6.8399     0.9509 H       
  64 H64            9.8119     8.7857    -0.0463 H       
  65 H65            7.5938     8.4738    -3.5420 H       
@<TRIPOS>BOND
   1    1    2 ar
   2    1    6 ar
   3    1   40 1
   4    2    3 ar
   5    2   41 1
   6    3    4 ar
   7    4    5 ar
   8    4    7 1
   9    5    6 ar
  10    5   11 1
  11    6   42 1
  12    7    8 1
  13    7   43 1
  14    8    9 ar
  15    8   12 ar
  16    9   10 1
  17    9   15 ar
  18   10   11 1
  19   10   16 2
  20   11   18 1
  21   12   13 ar
  22   12   44 1
  23   13   14 ar
  24   13   45 1
  25   14   15 ar
  26   14   46 1
  27   15   47 1
  28   16   17 1
  29   17   18 2
  30   17   25 1
  31   18   19 1
  32   19   20 ar
  33   19   21 ar
  34   20   24 ar
  35   20   48 1
  36   21   22 ar
  37   21   49 1
  38   22   23 ar
  39   22   50 1
  40   23   24 ar
  41   23   26 1
  42   24   51 1
  43   25   27 ar
  44   25   35 ar
  45   26   29 1
  46   26   28 1
  47   26   31 1
  48   27   32 ar
  49   27   52 1
  50   28   53 1
  51   28   54 1
  52   29   30 1
  53   29   55 1
  54   29   56 1
  55   30   31 1
  56   30   57 1
  57   30   58 1
  58   31   59 1
  59   31   60 1
  60   32   33 ar
  61   32   36 ar
  62   33   34 ar
  63   33   39 ar
  64   34   35 ar
  65   34   61 1
  66   35   62 1
  67   36   37 ar
  68   36   63 1
  69   37   38 ar
  70   37   64 1
  71   38   39 ar
  72   39   65 1

#	End of record

