#	Name: ASD01020001
#	Creating user name:	WinNT
#	Creation time:	15. 06. 2019 18:56

#	Modifying user name:	WinNT
#	Modification time:	15. 06. 2019 18:56

#	Program:	/corina/corina34_cracker 3.40 0067  02.08.2006

@<TRIPOS>MOLECULE
ASD01020001
  26   28    0    0    0
SMALL
NO_CHARGES


@<TRIPOS>ATOM
   1 O1            -0.5116     0.7001     1.9197 O.3     
   2 N2            -0.2665     1.7516     1.0036 N.ar    
   3 C3             0.8669     2.4179     1.0783 C.ar    
   4 C4             1.1429     3.4534     0.1994 C.ar    
   5 C5             0.2091     3.7904    -0.7723 C.ar    
   6 C6            -0.9729     3.0750    -0.8292 C.ar    
   7 C7            -1.1843     2.0393     0.0846 C.ar    
   8 S8            -2.6841     1.1162     0.0281 S.3     
   9 C9            -2.0530    -0.4663    -0.1409 C.ar    
  10 C10           -0.6177    -0.6830    -0.3529 C.ar    
  11 C11           -0.1027    -1.9468    -0.4899 C.ar    
  12 C12           -0.8973    -3.0903    -0.4376 C.ar    
  13 C13           -2.3292    -2.9816    -0.2317 C.ar    
  14 C14           -2.9333    -1.6356    -0.0713 C.ar    
  15 N15           -4.1975    -1.8999     0.0902 N.2     
  16 O16           -4.3629    -3.1027     0.0451 O.3     
  17 N17           -3.3661    -3.7759    -0.1278 N.2     
  18 N18           -0.2592    -4.4614    -0.5979 N.pl3   
  19 O19            1.0402    -4.5651    -0.7854 O.2     
  20 O20           -1.0061    -5.5451    -0.5492 O.2     
  21 H21            1.5910     2.1541     1.8350 H       
  22 H22            2.0754     3.9937     0.2696 H       
  23 H23            0.4019     4.5937    -1.4679 H       
  24 H24           -1.7205     3.3108    -1.5722 H       
  25 H25            0.0454     0.1680    -0.4022 H       
  26 H26            0.9601    -2.0601    -0.6448 H       
@<TRIPOS>BOND
   1    1    2 1
   2    2    3 ar
   3    2    7 ar
   4    3    4 ar
   5    3   21 1
   6    4    5 ar
   7    4   22 1
   8    5    6 ar
   9    5   23 1
  10    6    7 ar
  11    6   24 1
  12    7    8 1
  13    8    9 1
  14    9   10 ar
  15    9   14 ar
  16   10   11 ar
  17   10   25 1
  18   11   12 ar
  19   11   26 1
  20   12   13 ar
  21   12   18 1
  22   13   14 ar
  23   13   17 2
  24   14   15 2
  25   15   16 1
  26   16   17 1
  27   18   19 2
  28   18   20 2

#	End of record

