#	Name: ASD01901099
#	Creating user name:	WinNT
#	Creation time:	15. 06. 2019 19:53

#	Modifying user name:	WinNT
#	Modification time:	15. 06. 2019 19:53

#	Program:	/corina/corina34_cracker 3.40 0067  02.08.2006

@<TRIPOS>MOLECULE
ASD01901099
  30   31    0    0    0
SMALL
NO_CHARGES


@<TRIPOS>ATOM
   1 C1            -0.0184     1.5028     0.0103 C.2     
   2 C2             0.0021    -0.0041     0.0020 C.3     
   3 O3            -1.3386    -0.4987     0.0122 O.3     
   4 C4            -1.4983    -1.8483     0.0064 C.ar    
   5 C5            -2.7724    -2.3972     0.0157 C.ar    
   6 C6            -2.9321    -3.7693     0.0099 C.ar    
   7 C7            -1.8236    -4.5955    -0.0051 C.ar    
   8 C8            -0.5527    -4.0509    -0.0139 C.ar    
   9 C9            -0.3877    -2.6793    -0.0144 C.ar    
  10 C10           -2.0007    -6.0920    -0.0114 C.3     
  11 F11           -2.0681    -6.5481    -1.3323 F       
  12 F12           -0.9150    -6.6929     0.6346 F       
  13 F13           -3.1836    -6.4244     0.6576 F       
  14 C14            2.4725     1.5850    -0.0130 C.ar    
  15 C15            1.2453     2.2555     0.0023 C.ar    
  16 C16            1.2403     3.6588     0.0094 C.ar    
  17 C17            2.4551     4.3180     0.0009 C.ar    
  18 C18            3.6277     3.5799    -0.0142 C.ar    
  19 N19            3.6028     2.2592    -0.0206 N.ar    
  20 Cl20           5.1552     4.4048    -0.0255 Cl      
  21 O21           -1.0766     2.0947     0.0185 O.2     
  22 H22            0.5123    -0.3556    -0.8948 H       
  23 H23            0.5293    -0.3651     0.8851 H       
  24 H24           -3.6386    -1.7523     0.0277 H       
  25 H25           -3.9238    -4.1971     0.0174 H       
  26 H26            0.3117    -4.6983    -0.0248 H       
  27 H27            0.6052    -2.2544    -0.0261 H       
  28 H28            2.4929     0.5052    -0.0142 H       
  29 H29            0.3113     4.2094     0.0209 H       
  30 H30            2.4900     5.3975     0.0056 H       
@<TRIPOS>BOND
   1    1    2 1
   2    1   15 1
   3    1   21 2
   4    2    3 1
   5    2   22 1
   6    2   23 1
   7    3    4 1
   8    4    5 ar
   9    4    9 ar
  10    5    6 ar
  11    5   24 1
  12    6    7 ar
  13    6   25 1
  14    7    8 ar
  15    7   10 1
  16    8    9 ar
  17    8   26 1
  18    9   27 1
  19   10   11 1
  20   10   12 1
  21   10   13 1
  22   14   15 ar
  23   14   19 ar
  24   14   28 1
  25   15   16 ar
  26   16   17 ar
  27   16   29 1
  28   17   18 ar
  29   17   30 1
  30   18   19 ar
  31   18   20 1

#	End of record

