#	Name: ASD05490220
#	Creating user name:	WinNT
#	Creation time:	15. 06. 2019 21:01

#	Modifying user name:	WinNT
#	Modification time:	15. 06. 2019 21:01

#	Program:	/corina/corina34_cracker 3.40 0067  02.08.2006

@<TRIPOS>MOLECULE
ASD05490220
  61   64    0    0    0
SMALL
NO_CHARGES


@<TRIPOS>ATOM
   1 N1            -0.0159     1.3200     0.0093 N.ar    
   2 C2             0.0021    -0.0041     0.0020 C.ar    
   3 C3             1.1991    -0.7028    -0.0109 C.ar    
   4 C4             2.3947     0.0094    -0.0169 C.ar    
   5 C5             2.3384     1.4035    -0.0125 C.ar    
   6 C6             1.1021     2.0355     0.0025 C.ar    
   7 N7             3.6186    -0.6479    -0.0226 N.3     
   8 C8             4.6246     0.0704    -0.8118 C.3     
   9 C9             3.4706    -2.0318    -0.4925 C.3     
  10 C10            4.8335    -2.6336    -0.7195 C.ar    
  11 C11            5.4764    -3.2961     0.3091 C.ar    
  12 C12            6.7268    -3.8482     0.1008 C.ar    
  13 C13            7.3336    -3.7380    -1.1361 C.ar    
  14 C14            6.6900    -3.0761    -2.1653 C.ar    
  15 C15            5.4382    -2.5280    -1.9583 C.ar    
  16 C16            7.3518    -2.9556    -3.5138 C.3     
  17 N17            6.9770    -4.1053    -4.3478 N.3     
  18 C18            7.4068    -3.9077    -5.7442 C.3     
  19 C19            8.3078    -5.1032    -6.1188 C.3     
  20 C20            7.8784    -6.1957    -5.1045 C.3     
  21 C21            7.5891    -5.3511    -3.8386 C.3     
  22 N22            3.5337     2.1438    -0.0267 N.am    
  23 N23            1.0349     3.4263     0.0098 N.pl3   
  24 O24           -1.1705    -0.6880     0.0078 O.3     
  25 C25           -2.3723     0.0849     0.0216 C.3     
  26 C26           -3.5815    -0.8524     0.0262 C.3     
  27 C27           -4.8683    -0.0249     0.0410 C.3     
  28 C28           -6.0775    -0.9623     0.0457 C.3     
  29 C29            4.6733     1.5185    -0.3988 C.2     
  30 O30            5.7274     2.1189    -0.3997 O.2     
  31 H31            1.2039    -1.7827    -0.0159 H       
  32 H32            5.6021    -0.3842    -0.6505 H       
  33 H33            4.3684     0.0048    -1.8692 H       
  34 H34            2.9363    -2.6150     0.2575 H       
  35 H35            2.9095    -2.0402    -1.4269 H       
  36 H36            5.0023    -3.3822     1.2756 H       
  37 H37            7.2295    -4.3652     0.9048 H       
  38 H38            8.3106    -4.1687    -1.2986 H       
  39 H39            4.9355    -2.0109    -2.7623 H       
  40 H40            7.0262    -2.0345    -3.9973 H       
  41 H41            8.4342    -2.9363    -3.3869 H       
  42 H42            6.5363    -3.8797    -6.3997 H       
  43 H43            7.9691    -2.9780    -5.8311 H       
  44 H44            8.1122    -5.4278    -7.1408 H       
  45 H45            9.3597    -4.8486    -5.9888 H       
  46 H46            6.9801    -6.7117    -5.4434 H       
  47 H47            8.6887    -6.9025    -4.9256 H       
  48 H48            8.5162    -5.1298    -3.3100 H       
  49 H49            6.8935    -5.8755    -3.1834 H       
  50 H50            3.5406     3.0807     0.2244 H       
  51 H51            1.8505     3.9513     0.0045 H       
  52 H52            0.1725     3.8701     0.0203 H       
  53 H53           -2.3928     0.7088     0.9151 H       
  54 H54           -2.4071     0.7184    -0.8648 H       
  55 H55           -3.5610    -1.4763    -0.8673 H       
  56 H56           -3.5467    -1.4859     0.9126 H       
  57 H57           -4.8888     0.5990     0.9346 H       
  58 H58           -4.9031     0.6086    -0.8453 H       
  59 H59           -6.9942    -0.3727     0.0562 H       
  60 H60           -6.0570    -1.5862    -0.8478 H       
  61 H61           -6.0427    -1.5958     0.9320 H       
@<TRIPOS>BOND
   1    1    2 ar
   2    1    6 ar
   3    2    3 ar
   4    2   24 1
   5    3    4 ar
   6    3   31 1
   7    4    5 ar
   8    4    7 1
   9    5    6 ar
  10    5   22 1
  11    6   23 1
  12    7    8 1
  13    7    9 1
  14    8   29 1
  15    8   32 1
  16    8   33 1
  17    9   10 1
  18    9   34 1
  19    9   35 1
  20   10   11 ar
  21   10   15 ar
  22   11   12 ar
  23   11   36 1
  24   12   13 ar
  25   12   37 1
  26   13   14 ar
  27   13   38 1
  28   14   15 ar
  29   14   16 1
  30   15   39 1
  31   16   17 1
  32   16   40 1
  33   16   41 1
  34   17   18 1
  35   17   21 1
  36   18   19 1
  37   18   42 1
  38   18   43 1
  39   19   20 1
  40   19   44 1
  41   19   45 1
  42   20   21 1
  43   20   46 1
  44   20   47 1
  45   21   48 1
  46   21   49 1
  47   22   29 am
  48   22   50 1
  49   23   51 1
  50   23   52 1
  51   24   25 1
  52   25   26 1
  53   25   53 1
  54   25   54 1
  55   26   27 1
  56   26   55 1
  57   26   56 1
  58   27   28 1
  59   27   57 1
  60   27   58 1
  61   28   59 1
  62   28   60 1
  63   28   61 1
  64   29   30 2

#	End of record

