#	Name: ASD01912584
#	Creating user name:	WinNT
#	Creation time:	15. 06. 2019 19:59

#	Modifying user name:	WinNT
#	Modification time:	15. 06. 2019 19:59

#	Program:	/corina/corina34_cracker 3.40 0067  02.08.2006

@<TRIPOS>MOLECULE
ASD01912584
  60   64    0    0    0
SMALL
NO_CHARGES


@<TRIPOS>ATOM
   1 C1             0.0002     1.4162    -0.3857 C.ar    
   2 C2             0.0220     0.1697    -1.0114 C.ar    
   3 C3             1.2609     2.1612    -0.1719 C.2     
   4 N4             1.3807     3.5077     0.0077 N.pl3   
   5 C5             2.5140     1.6253    -0.1128 C.2     
   6 C6             3.4206     2.6768     0.1028 C.2     
   7 N7             2.7399     3.8016     0.1745 N.2     
   8 C8             4.8932     2.5422     0.2318 C.ar    
   9 C9             5.6823     3.6704     0.4451 C.ar    
  10 C10            5.4906     1.2866     0.1457 C.ar    
  11 C11            6.8604     1.1672     0.2663 C.ar    
  12 C12            7.6396     2.2912     0.4727 C.ar    
  13 C13            7.0511     3.5396     0.5643 C.ar    
  14 C14            0.2816     4.4762     0.0227 C.3     
  15 C15           -0.1645     4.7078     1.4434 C.2     
  16 N16           -1.1706     5.5664     1.7023 N.am    
  17 O17            0.3819     4.1217     2.3538 O.2     
  18 C18           -1.6215     5.8071     3.0814 C.3     
  19 C19           -1.6496     7.3193     3.3275 C.3     
  20 N20           -2.4599     7.9665     2.2871 N.3     
  21 C21           -1.8659     7.7808     0.9564 C.3     
  22 C22           -1.8427     6.2920     0.6138 C.3     
  23 C23           -2.6433     9.3099     2.5653 C.ar    
  24 N24           -3.3535    10.0525     1.7288 N.ar    
  25 C25           -3.5476    11.3394     1.9652 C.ar    
  26 C26           -2.9980    11.9083     3.1033 C.ar    
  27 C27           -2.2607    11.1026     3.9569 C.ar    
  28 N28           -2.1090     9.8215     3.6645 N.ar    
  29 C29           -1.1598    -0.5223    -1.2085 C.ar    
  30 C30           -2.3654     0.0251    -0.7836 C.ar    
  31 C31           -2.3876     1.2621    -0.1632 C.ar    
  32 C32           -1.2136     1.9610     0.0328 C.ar    
  33 F33           -3.5183    -0.6521    -0.9775 F       
  34 O34           -1.1425    -1.7375    -1.8180 O.3     
  35 C35            0.1310    -2.2390    -2.2289 C.3     
  36 H36            0.9590    -0.2541    -1.3415 H       
  37 H37            2.7644     0.5795    -0.2133 H       
  38 H38            5.2238     4.6456     0.5167 H       
  39 H39            4.8830     0.4083    -0.0148 H       
  40 H40            7.3246     0.1943     0.1997 H       
  41 H41            8.7110     2.1931     0.5672 H       
  42 H42            7.6642     4.4139     0.7255 H       
  43 H43            0.6209     5.4175    -0.4097 H       
  44 H44           -0.5527     4.0879    -0.5614 H       
  45 H45           -2.6217     5.3955     3.2167 H       
  46 H46           -0.9308     5.3352     3.7801 H       
  47 H47           -2.0857     7.5206     4.3059 H       
  48 H48           -0.6334     7.7122     3.2939 H       
  49 H49           -2.4589     8.3167     0.2154 H       
  50 H50           -0.8467     8.1672     0.9559 H       
  51 H51           -1.3006     6.1396    -0.3195 H       
  52 H52           -2.8635     5.9238     0.5119 H       
  53 H53           -4.1271    11.9397     1.2794 H       
  54 H54           -3.1408    12.9566     3.3202 H       
  55 H55           -1.8188    11.5150     4.8519 H       
  56 H56           -3.3265     1.6835     0.1644 H       
  57 H57           -1.2339     2.9261     0.5173 H       
  58 H58            0.7803    -2.3383    -1.3591 H       
  59 H59            0.0029    -3.2136    -2.6999 H       
  60 H60            0.5811    -1.5476    -2.9412 H       
@<TRIPOS>BOND
   1    1    2 ar
   2    1    3 1
   3    1   32 ar
   4    2   29 ar
   5    2   36 1
   6    3    4 1
   7    3    5 2
   8    4   14 1
   9    4    7 1
  10    5    6 1
  11    5   37 1
  12    6    7 2
  13    6    8 1
  14    8    9 ar
  15    8   10 ar
  16    9   13 ar
  17    9   38 1
  18   10   11 ar
  19   10   39 1
  20   11   12 ar
  21   11   40 1
  22   12   13 ar
  23   12   41 1
  24   13   42 1
  25   14   15 1
  26   14   43 1
  27   14   44 1
  28   15   16 am
  29   15   17 2
  30   16   18 1
  31   16   22 1
  32   18   19 1
  33   18   45 1
  34   18   46 1
  35   19   20 1
  36   19   47 1
  37   19   48 1
  38   20   21 1
  39   20   23 1
  40   21   22 1
  41   21   49 1
  42   21   50 1
  43   22   51 1
  44   22   52 1
  45   23   24 ar
  46   23   28 ar
  47   24   25 ar
  48   25   26 ar
  49   25   53 1
  50   26   27 ar
  51   26   54 1
  52   27   28 ar
  53   27   55 1
  54   29   30 ar
  55   29   34 1
  56   30   31 ar
  57   30   33 1
  58   31   32 ar
  59   31   56 1
  60   32   57 1
  61   34   35 1
  62   35   58 1
  63   35   59 1
  64   35   60 1

#	End of record

