#	Name: ASD01901604
#	Creating user name:	WinNT
#	Creation time:	15. 06. 2019 19:54

#	Modifying user name:	WinNT
#	Modification time:	15. 06. 2019 19:54

#	Program:	/corina/corina34_cracker 3.40 0067  02.08.2006

@<TRIPOS>MOLECULE
ASD01901604
  51   54    0    0    0
SMALL
NO_CHARGES


@<TRIPOS>ATOM
   1 C1             2.0116     1.8766     0.9597 C.3     
   2 C2             1.0748     2.0179    -0.2417 C.3     
   3 C3            -0.1916     1.1939    -0.0007 C.3     
   4 C4             0.6986     3.4896    -0.4247 C.3     
   5 C5             1.7808     1.5116    -1.5011 C.3     
   6 C6             2.1570     0.0399    -1.3182 C.3     
   7 N7             2.7255    -0.4793    -2.5692 N.3     
   8 C8             3.9214     0.2775    -2.9575 C.3     
   9 C9             4.5400    -0.3862    -4.1947 C.3     
  10 O10            4.9562    -1.7048    -3.8251 O.3     
  11 C11            4.0743    -2.4428    -3.0960 C.ar    
  12 C12            4.2853    -3.8088    -2.9805 C.ar    
  13 C13            3.4079    -4.5897    -2.2409 C.ar    
  14 N14            3.6225    -5.9680    -2.1256 N.pl3   
  15 C15            4.9113    -6.4885    -2.2661 C.2     
  16 N16            6.0132    -5.7983    -2.3975 N.2     
  17 N17            7.1079    -6.6605    -2.5122 N.pl3   
  18 H18            8.0313    -6.3833    -2.6189 H       
  19 C19            6.6732    -7.9563    -2.4499 C.ar    
  20 N20            7.2895    -9.1309    -2.5073 N.ar    
  21 C21            6.6224   -10.2613    -2.4205 C.ar    
  22 C22            5.2440   -10.2812    -2.2648 C.ar    
  23 C23            4.5520    -9.0992    -2.1989 C.ar    
  24 C24            5.2745    -7.9058    -2.2867 C.ar    
  25 C25            2.3173    -4.0008    -1.6153 C.ar    
  26 C26            2.1053    -2.6414    -1.7309 C.ar    
  27 C27            2.9799    -1.8545    -2.4728 C.ar    
  28 H28            2.2797     0.8281     1.0901 H       
  29 H29            2.9138     2.4636     0.7880 H       
  30 H30            1.5087     2.2373     1.8570 H       
  31 H31           -0.6945     1.5546     0.8966 H       
  32 H32           -0.8589     1.2946    -0.8566 H       
  33 H33            0.0765     0.1454     0.1297 H       
  34 H34            1.6008     4.0767    -0.5964 H       
  35 H35            0.0312     3.5903    -1.2806 H       
  36 H36            0.1957     3.8503     0.4726 H       
  37 H37            1.1134     1.6123    -2.3571 H       
  38 H38            2.6830     2.0987    -1.6728 H       
  39 H39            2.8934    -0.0502    -0.5195 H       
  40 H40            1.2670    -0.5330    -1.0582 H       
  41 H41            3.6437     1.3047    -3.1936 H       
  42 H42            4.6414     0.2692    -2.1392 H       
  43 H43            3.7989    -0.4433    -4.9919 H       
  44 H44            5.4010     0.1914    -4.5313 H       
  45 H45            5.1340    -4.2659    -3.4674 H       
  46 H46            2.8763    -6.5619    -1.9481 H       
  47 H47            7.1605   -11.1963    -2.4720 H       
  48 H48            4.7188   -11.2224    -2.1963 H       
  49 H49            3.4788    -9.0906    -2.0782 H       
  50 H50            1.6343    -4.6064    -1.0382 H       
  51 H51            1.2556    -2.1868    -1.2434 H       
@<TRIPOS>BOND
   1    1    2 1
   2    1   28 1
   3    1   29 1
   4    1   30 1
   5    2    3 1
   6    2    4 1
   7    2    5 1
   8    3   31 1
   9    3   32 1
  10    3   33 1
  11    4   34 1
  12    4   35 1
  13    4   36 1
  14    5    6 1
  15    5   37 1
  16    5   38 1
  17    6    7 1
  18    6   39 1
  19    6   40 1
  20    7   27 1
  21    7    8 1
  22    8    9 1
  23    8   41 1
  24    8   42 1
  25    9   10 1
  26    9   43 1
  27    9   44 1
  28   10   11 1
  29   11   27 ar
  30   11   12 ar
  31   12   13 ar
  32   12   45 1
  33   13   14 1
  34   13   25 ar
  35   14   15 1
  36   14   46 1
  37   15   24 1
  38   15   16 2
  39   16   17 1
  40   17   18 1
  41   17   19 1
  42   19   24 ar
  43   19   20 ar
  44   20   21 ar
  45   21   22 ar
  46   21   47 1
  47   22   23 ar
  48   22   48 1
  49   23   24 ar
  50   23   49 1
  51   25   26 ar
  52   25   50 1
  53   26   27 ar
  54   26   51 1

#	End of record

