#	Name: ASD01230546
#	Creating user name:	WinNT
#	Creation time:	15. 06. 2019 19:14

#	Modifying user name:	WinNT
#	Modification time:	15. 06. 2019 19:14

#	Program:	/corina/corina34_cracker 3.40 0067  02.08.2006

@<TRIPOS>MOLECULE
ASD01230546
  31   33    0    0    0
SMALL
NO_CHARGES


@<TRIPOS>ATOM
   1 C1             0.8552     1.0312    -0.8032 C.ar    
   2 C2             1.0607    -0.3151    -0.6970 C.ar    
   3 C3             2.2194    -0.8186    -0.0984 C.ar    
   4 C4             3.1726     0.0180     0.3935 C.ar    
   5 C5             2.9947     1.4090     0.3011 C.ar    
   6 C6             3.9605     2.3005     0.8001 C.ar    
   7 C7             3.7590     3.6412     0.6960 C.ar    
   8 C8             2.6012     4.1502     0.0982 C.ar    
   9 C9             1.6422     3.3128    -0.3967 C.ar    
  10 C10            1.8201     1.9222    -0.3053 C.ar    
  11 O11            0.1265    -1.1761    -1.1791 O.3     
  12 O12            2.4282     5.4948     0.0092 O.3     
  13 C13            2.8826     7.5249    -1.1730 C.ar    
  14 C14            2.9336     6.1328    -1.0801 C.ar    
  15 C15            3.5081     5.4104    -2.1154 C.ar    
  16 C16            4.0115     6.1052    -3.2075 C.ar    
  17 C17            3.9265     7.4822    -3.2312 C.ar    
  18 N18            3.3745     8.1461    -2.2322 N.ar    
  19 N19            2.3042     8.2648    -0.1453 N.pl3   
  20 H20           -0.0420     1.4084    -1.2713 H       
  21 H21            2.3596    -1.8869    -0.0252 H       
  22 H22            4.0626    -0.3852     0.8537 H       
  23 H23            4.8589     1.9219     1.2648 H       
  24 H24            4.5032     4.3228     1.0805 H       
  25 H25            0.7521     3.7174    -0.8555 H       
  26 H26            0.2612    -1.4254    -2.1036 H       
  27 H27            3.5630     4.3326    -2.0732 H       
  28 H28            4.4654     5.5728    -4.0302 H       
  29 H29            4.3172     8.0249    -4.0793 H       
  30 H30            1.9388     7.8130     0.6313 H       
  31 H31            2.2667     9.2322    -0.2059 H       
@<TRIPOS>BOND
   1    1    2 ar
   2    1   10 ar
   3    1   20 1
   4    2    3 ar
   5    2   11 1
   6    3    4 ar
   7    3   21 1
   8    4    5 ar
   9    4   22 1
  10    5    6 ar
  11    5   10 ar
  12    6    7 ar
  13    6   23 1
  14    7    8 ar
  15    7   24 1
  16    8    9 ar
  17    8   12 1
  18    9   10 ar
  19    9   25 1
  20   11   26 1
  21   12   14 1
  22   13   14 ar
  23   13   18 ar
  24   13   19 1
  25   14   15 ar
  26   15   16 ar
  27   15   27 1
  28   16   17 ar
  29   16   28 1
  30   17   18 ar
  31   17   29 1
  32   19   30 1
  33   19   31 1

#	End of record

