#	Name: ASD01884738
#	Creating user name:	WinNT
#	Creation time:	15. 06. 2019 19:48

#	Modifying user name:	WinNT
#	Modification time:	15. 06. 2019 19:48

#	Program:	/corina/corina34_cracker 3.40 0067  02.08.2006

@<TRIPOS>MOLECULE
ASD01884738
  61   64    0    0    0
SMALL
NO_CHARGES


@<TRIPOS>ATOM
   1 C1            -0.8243     1.3981    -1.1037 C.2     
   2 C2            -0.8227     0.0058    -1.1352 C.2     
   3 C3            -1.2135    -0.6983     0.0098 C.2     
   4 C4            -1.5878    -0.0216     1.1311 C.2     
   5 N5            -1.5900     1.3357     1.1635 N.am    
   6 C6            -1.2164     2.0570     0.0899 C.2     
   7 O7            -1.2253     3.2754     0.1399 O.2     
   8 C8            -1.9999     2.0265     2.3886 C.3     
   9 C9            -0.4309     2.1523    -2.2557 C.1     
  10 N10           -0.1189     2.7507    -3.1695 N.1     
  11 C11           -0.7761     2.2582     3.2772 C.3     
  12 C12           -1.2041     2.9797     4.5567 C.3     
  13 C13           -0.0052     3.1006     5.4995 C.3     
  14 C14           -1.7201     4.3768     4.2061 C.3     
  15 N15           -1.2200    -2.1015     0.0024 N.pl3   
  16 C16           -2.4767    -2.8611     0.1200 C.3     
  17 C17           -2.5814    -3.8605    -1.0339 C.3     
  18 C18           -1.3144    -4.7215    -1.1038 C.3     
  19 C19           -0.1136    -3.8074    -1.3223 C.3     
  20 C20            0.0220    -2.8671    -0.1288 C.3     
  21 C21            1.1615    -4.5734    -1.5157 C.ar    
  22 C22            2.3644    -4.1042    -1.0273 C.ar    
  23 C23            2.4912    -2.8178    -0.2545 C.3     
  24 C24            1.2282    -1.9645    -0.3785 C.3     
  25 C25            1.1148    -5.7763    -2.2031 C.ar    
  26 C26            2.2694    -6.5118    -2.4114 C.ar    
  27 C27            3.4801    -6.0365    -1.9279 C.ar    
  28 C28            3.5228    -4.8420    -1.2426 C.ar    
  29 O29            2.2171    -7.6913    -3.0843 O.3     
  30 C30            3.4493    -8.3933    -3.2599 C.3     
  31 H31           -0.5250    -0.5223    -2.0290 H       
  32 H32           -1.8883    -0.5740     2.0091 H       
  33 H33           -2.4493     2.9858     2.1318 H       
  34 H34           -2.7273     1.4162     2.9239 H       
  35 H35           -0.3267     1.2989     3.5340 H       
  36 H36           -0.0487     2.8685     2.7419 H       
  37 H37           -1.9956     2.4124     5.0463 H       
  38 H38            0.7863     3.6680     5.0098 H       
  39 H39           -0.3102     3.6146     6.4110 H       
  40 H40            0.3624     2.1053     5.7492 H       
  41 H41           -0.9286     4.9442     3.7165 H       
  42 H42           -2.5743     4.2907     3.5344 H       
  43 H43           -2.0251     4.8908     5.1176 H       
  44 H44           -2.4886    -3.3987     1.0681 H       
  45 H45           -3.3215    -2.1733     0.0823 H       
  46 H46           -3.4472    -4.5039    -0.8771 H       
  47 H47           -2.7020    -3.3183    -1.9717 H       
  48 H48           -1.1921    -5.2686    -0.1691 H       
  49 H49           -1.3950    -5.4239    -1.9334 H       
  50 H50           -0.2869    -3.2097    -2.2171 H       
  51 H51            0.1813    -3.4502     0.7782 H       
  52 H52            2.6685    -3.0497     0.7956 H       
  53 H53            3.3395    -2.2528    -0.6409 H       
  54 H54            1.1707    -1.5346    -1.3785 H       
  55 H55            1.2474    -1.1678     0.3651 H       
  56 H56            0.1708    -6.1427    -2.5786 H       
  57 H57            4.3866    -6.6013    -2.0886 H       
  58 H58            4.4669    -4.4748    -0.8682 H       
  59 H59            4.1471    -7.7686    -3.8176 H       
  60 H60            3.8742    -8.6311    -2.2846 H       
  61 H61            3.2667    -9.3156    -3.8113 H       
@<TRIPOS>BOND
   1    1    2 2
   2    1    9 1
   3    1    6 1
   4    2    3 1
   5    2   31 1
   6    3    4 2
   7    3   15 1
   8    4    5 1
   9    4   32 1
  10    5    8 1
  11    5    6 am
  12    6    7 2
  13    8   11 1
  14    8   33 1
  15    8   34 1
  16    9   10 3
  17   11   12 1
  18   11   35 1
  19   11   36 1
  20   12   13 1
  21   12   14 1
  22   12   37 1
  23   13   38 1
  24   13   39 1
  25   13   40 1
  26   14   41 1
  27   14   42 1
  28   14   43 1
  29   15   16 1
  30   15   20 1
  31   16   17 1
  32   16   44 1
  33   16   45 1
  34   17   18 1
  35   17   46 1
  36   17   47 1
  37   18   19 1
  38   18   48 1
  39   18   49 1
  40   19   20 1
  41   19   21 1
  42   19   50 1
  43   20   24 1
  44   20   51 1
  45   21   22 ar
  46   21   25 ar
  47   22   23 1
  48   22   28 ar
  49   23   24 1
  50   23   52 1
  51   23   53 1
  52   24   54 1
  53   24   55 1
  54   25   26 ar
  55   25   56 1
  56   26   27 ar
  57   26   29 1
  58   27   28 ar
  59   27   57 1
  60   28   58 1
  61   29   30 1
  62   30   59 1
  63   30   60 1
  64   30   61 1

#	End of record

