#	Name: ASD05273009
#	Creating user name:	WinNT
#	Creation time:	15. 06. 2019 20:58

#	Modifying user name:	WinNT
#	Modification time:	15. 06. 2019 20:58

#	Program:	/corina/corina34_cracker 3.40 0067  02.08.2006

@<TRIPOS>MOLECULE
ASD05273009
  11   11    0    0    0
SMALL
NO_CHARGES


@<TRIPOS>ATOM
   1 C1            -0.0167     1.3778     0.0096 C.ar    
   2 C2             0.0021    -0.0041     0.0020 C.ar    
   3 N3             1.1442    -0.6631    -0.0124 N.ar    
   4 C4             2.3054    -0.0381    -0.0202 C.ar    
   5 C5             2.3651     1.3426    -0.0129 C.ar    
   6 C6             1.1848     2.0699     0.0019 C.ar    
   7 H7            -0.9553     1.9119     0.0170 H       
   8 H8            -0.9294    -0.5505     0.0083 H       
   9 H9             3.2203    -0.6119    -0.0320 H       
  10 H10            3.3192     1.8487    -0.0185 H       
  11 H11            1.2008     3.1497     0.0075 H       
@<TRIPOS>BOND
   1    1    2 ar
   2    1    6 ar
   3    1    7 1
   4    2    3 ar
   5    2    8 1
   6    3    4 ar
   7    4    5 ar
   8    4    9 1
   9    5    6 ar
  10    5   10 1
  11    6   11 1

#	End of record

