#	Name: ASD01881513
#	Creating user name:	WinNT
#	Creation time:	15. 06. 2019 19:42

#	Modifying user name:	WinNT
#	Modification time:	15. 06. 2019 19:42

#	Program:	/corina/corina34_cracker 3.40 0067  02.08.2006

@<TRIPOS>MOLECULE
ASD01881513
  60   63    0    0    0
SMALL
NO_CHARGES


@<TRIPOS>ATOM
   1 N1            -0.0877     1.5511     0.0758 N.ar    
   2 C2            -0.0081     0.2295    -0.0250 C.ar    
   3 C3             1.2336    -0.4077    -0.0976 C.ar    
   4 C4             2.3736     0.3577    -0.0629 C.ar    
   5 C5             2.2579     1.7508     0.0439 C.ar    
   6 C6             0.9833     2.3150     0.1118 C.ar    
   7 C7             3.8471     0.0543    -0.1156 C.3     
   8 N8             4.5352     1.3484    -0.0325 N.am    
   9 C9             3.6143     2.3240     0.0594 C.2     
  10 C10            5.9869     1.5448    -0.0476 C.3     
  11 C11            6.4555     1.7187    -1.4693 C.ar    
  12 C12            6.5109     2.9822    -2.0281 C.ar    
  13 C13            6.9401     3.1442    -3.3312 C.ar    
  14 C14            7.3156     2.0379    -4.0792 C.ar    
  15 C15            7.2591     0.7712    -3.5162 C.ar    
  16 C16            6.8346     0.6150    -2.2109 C.ar    
  17 O17            3.8658     3.5105     0.1428 O.2     
  18 C18            0.8322     3.8100     0.2270 C.3     
  19 C19           -1.2501    -0.5790    -0.0604 C.ar    
  20 C20           -2.4927     0.0462     0.0118 C.ar    
  21 C21           -3.6508    -0.7164    -0.0218 C.ar    
  22 C22           -3.5686    -2.0997    -0.1273 C.ar    
  23 C23           -2.3349    -2.7192    -0.1989 C.ar    
  24 C24           -1.1777    -1.9674    -0.1719 C.ar    
  25 N25           -4.8995    -0.0943     0.0507 N.am    
  26 O26            7.7378     2.1946    -5.3614 O.3     
  27 C27            8.1087     1.0113    -6.0716 C.3     
  28 F28            7.0119     0.1455    -6.1401 F       
  29 F29            8.5151     1.3524    -7.3661 F       
  30 F30            9.1621     0.3776    -5.4038 F       
  31 S31           -5.0905     1.2753     0.9619 S.o2    
  32 O32           -6.4414     1.2196     1.3993 O.2     
  33 O33           -4.0169     1.2300     1.8918 O.2     
  34 C34           -4.8576     2.6371    -0.2135 C.3     
  35 S35           -6.1887    -0.7262    -0.7744 S.o2    
  36 O36           -6.9916     0.4034    -1.0885 O.2     
  37 O37           -5.5972    -1.5124    -1.7998 O.2     
  38 C38           -7.0262    -1.7855     0.4368 C.3     
  39 H39            1.2957    -1.4828    -0.1792 H       
  40 H40            4.1303    -0.5756     0.7277 H       
  41 H41            4.0942    -0.4419    -1.0542 H       
  42 H42            6.2393     2.4344     0.5295 H       
  43 H43            6.4758     0.6755     0.3923 H       
  44 H44            6.2181     3.8431    -1.4455 H       
  45 H45            6.9828     4.1313    -3.7673 H       
  46 H46            7.5510    -0.0917    -4.0965 H       
  47 H47            6.7904    -0.3709    -1.7722 H       
  48 H48            0.7753     4.2474    -0.7698 H       
  49 H49           -0.0793     4.0417     0.7780 H       
  50 H50            1.6913     4.2223     0.7562 H       
  51 H51           -2.5543     1.1213     0.0940 H       
  52 H52           -4.4710    -2.6924    -0.1530 H       
  53 H53           -2.2765    -3.7945    -0.2804 H       
  54 H54           -0.2157    -2.4551    -0.2281 H       
  55 H55           -5.6895     2.6557    -0.9175 H       
  56 H56           -4.8190     3.5821     0.3283 H       
  57 H57           -3.9244     2.4919    -0.7576 H       
  58 H58           -7.3436    -1.1833     1.2881 H       
  59 H59           -7.8978    -2.2480    -0.0262 H       
  60 H60           -6.3403    -2.5617     0.7764 H       
@<TRIPOS>BOND
   1    1    2 ar
   2    1    6 ar
   3    2    3 ar
   4    2   19 1
   5    3    4 ar
   6    3   39 1
   7    4    5 ar
   8    4    7 1
   9    5    6 ar
  10    5    9 1
  11    6   18 1
  12    7    8 1
  13    7   40 1
  14    7   41 1
  15    8    9 am
  16    8   10 1
  17    9   17 2
  18   10   11 1
  19   10   42 1
  20   10   43 1
  21   11   12 ar
  22   11   16 ar
  23   12   13 ar
  24   12   44 1
  25   13   14 ar
  26   13   45 1
  27   14   26 1
  28   14   15 ar
  29   15   16 ar
  30   15   46 1
  31   16   47 1
  32   18   48 1
  33   18   49 1
  34   18   50 1
  35   19   20 ar
  36   19   24 ar
  37   20   21 ar
  38   20   51 1
  39   21   22 ar
  40   21   25 1
  41   22   23 ar
  42   22   52 1
  43   23   24 ar
  44   23   53 1
  45   24   54 1
  46   25   31 am
  47   25   35 am
  48   26   27 1
  49   27   28 1
  50   27   29 1
  51   27   30 1
  52   31   32 2
  53   31   33 2
  54   31   34 1
  55   34   55 1
  56   34   56 1
  57   34   57 1
  58   35   36 2
  59   35   37 2
  60   35   38 1
  61   38   58 1
  62   38   59 1
  63   38   60 1

#	End of record

