#	Name: ASD01914119
#	Creating user name:	WinNT
#	Creation time:	15. 06. 2019 20:02

#	Modifying user name:	WinNT
#	Modification time:	15. 06. 2019 20:02

#	Program:	/corina/corina34_cracker 3.40 0067  02.08.2006

@<TRIPOS>MOLECULE
ASD01914119
  36   37    0    0    0
SMALL
NO_CHARGES


@<TRIPOS>ATOM
   1 C1            -0.0184     1.5028     0.0103 C.2     
   2 C2             0.0021    -0.0041     0.0020 C.3     
   3 C3             1.4513    -0.4944    -0.0145 C.3     
   4 C4             1.4713    -1.9662    -0.0225 C.1     
   5 C5             1.4872    -3.1401    -0.0290 C.1     
   6 O6             1.0237     2.1235     0.0037 O.2     
   7 N7            -1.1946     2.1607     0.0195 N.am    
   8 C8             1.5066    -4.5719    -0.0369 C.ar    
   9 C9             2.7273    -5.2477    -0.0522 C.ar    
  10 C10            2.7293    -6.6312    -0.0596 C.ar    
  11 C11            1.5107    -7.2960    -0.0515 C.ar    
  12 C12            0.3380    -6.5636    -0.0364 C.ar    
  13 N13            0.3627    -5.2465    -0.0241 N.ar    
  14 C14           -2.4532     1.4111     0.0214 C.3     
  15 C15           -1.2136     3.5603     0.0272 C.ar    
  16 C16           -1.2173     4.2503     1.2338 C.ar    
  17 C17           -1.2356     5.6320     1.2374 C.ar    
  18 C18           -1.2502     6.3277     0.0421 C.ar    
  19 C19           -1.2465     5.6439    -1.1594 C.ar    
  20 C20           -1.2229     4.2625    -1.1702 C.ar    
  21 Cl21          -1.1996     3.3773     2.7343 Cl      
  22 H22           -0.4983    -0.3791     0.8948 H       
  23 H23           -0.5153    -0.3696    -0.8850 H       
  24 H24            1.9516    -0.1193    -0.9073 H       
  25 H25            1.9686    -0.1289     0.8726 H       
  26 H26            3.6573    -4.6986    -0.0585 H       
  27 H27            3.6584    -7.1818    -0.0718 H       
  28 H28            1.4789    -8.3755    -0.0574 H       
  29 H29           -0.6113    -7.0785    -0.0305 H       
  30 H30           -2.7605     1.2195     1.0495 H       
  31 H31           -3.2232     1.9925    -0.4857 H       
  32 H32           -2.3124     0.4633    -0.4983 H       
  33 H33           -1.2389     6.1691     2.1743 H       
  34 H34           -1.2648     7.4076     0.0474 H       
  35 H35           -1.2582     6.1903    -2.0909 H       
  36 H36           -1.2159     3.7294    -2.1095 H       
@<TRIPOS>BOND
   1    1    2 1
   2    1    6 2
   3    1    7 am
   4    2    3 1
   5    2   22 1
   6    2   23 1
   7    3    4 1
   8    3   24 1
   9    3   25 1
  10    4    5 3
  11    5    8 1
  12    7   14 1
  13    7   15 1
  14    8    9 ar
  15    8   13 ar
  16    9   10 ar
  17    9   26 1
  18   10   11 ar
  19   10   27 1
  20   11   12 ar
  21   11   28 1
  22   12   13 ar
  23   12   29 1
  24   14   30 1
  25   14   31 1
  26   14   32 1
  27   15   16 ar
  28   15   20 ar
  29   16   17 ar
  30   16   21 1
  31   17   18 ar
  32   17   33 1
  33   18   19 ar
  34   18   34 1
  35   19   20 ar
  36   19   35 1
  37   20   36 1

#	End of record

