#	Name: ASD01813692
#	Creating user name:	WinNT
#	Creation time:	15. 06. 2019 19:30

#	Modifying user name:	WinNT
#	Modification time:	15. 06. 2019 19:30

#	Program:	/corina/corina34_cracker 3.40 0067  02.08.2006

@<TRIPOS>MOLECULE
ASD01813692
  43   46    0    0    0
SMALL
NO_CHARGES


@<TRIPOS>ATOM
   1 C1             0.0968     1.4747     0.3435 C.ar    
   2 C2             0.0787     0.0884     0.3355 C.ar    
   3 C3             1.2492    -0.6317     0.2096 C.ar    
   4 C4             2.4674     0.0343     0.0880 C.ar    
   5 C5             2.4842     1.4395     0.0957 C.ar    
   6 C6             1.2916     2.1559     0.2244 C.ar    
   7 N7             3.6437    -0.6744    -0.0375 N.pl3   
   8 C8             4.8384    -0.0816    -0.1561 C.2     
   9 C9             4.9808     1.2913    -0.1611 C.2     
  10 C10            3.7788     2.1315    -0.0336 C.2     
  11 O11            3.8514     3.3480    -0.0331 O.2     
  12 C12            6.3101     1.9040    -0.2924 C.2     
  13 O13            6.4363     3.2461    -0.2960 O.3     
  14 O14            7.2959     1.2005    -0.3979 O.2     
  15 C15            3.5837    -2.1382    -0.0406 C.3     
  16 C16            3.4403    -2.6321    -1.4571 C.ar    
  17 C17            4.5504    -2.7826    -2.2697 C.ar    
  18 C18            4.3776    -3.2423    -3.5737 C.ar    
  19 N19            3.1667    -3.5316    -4.0316 N.ar    
  20 C20            2.0934    -3.3972    -3.2792 C.ar    
  21 C21            2.1926    -2.9516    -1.9742 C.ar    
  22 F22            1.2142    -1.9823     0.2046 F       
  23 F23            1.3075     3.5068     0.2314 F       
  24 C24            5.5574    -3.4091    -4.4573 C.ar    
  25 C25            5.3940    -3.8683    -5.7629 C.ar    
  26 C26            6.4952    -4.0211    -6.5807 C.ar    
  27 C27            7.7592    -3.7195    -6.1067 C.ar    
  28 C28            7.9272    -3.2634    -4.8117 C.ar    
  29 C29            6.8326    -3.1018    -3.9867 C.ar    
  30 H30           -0.8282     2.0240     0.4387 H       
  31 H31           -0.8620    -0.4338     0.4294 H       
  32 H32            5.7200    -0.6983    -0.2507 H       
  33 H33            7.3307     3.6028    -0.3848 H       
  34 H34            4.4991    -2.5403     0.3935 H       
  35 H35            2.7273    -2.4680     0.5476 H       
  36 H36            5.5368    -2.5468    -1.8984 H       
  37 H37            1.1234    -3.6421    -3.6861 H       
  38 H38            1.3067    -2.8452    -1.3656 H       
  39 H39            4.4076    -4.1044    -6.1339 H       
  40 H40            6.3698    -4.3772    -7.5926 H       
  41 H41            8.6181    -3.8410    -6.7500 H       
  42 H42            8.9165    -3.0298    -4.4466 H       
  43 H43            6.9649    -2.7452    -2.9759 H       
@<TRIPOS>BOND
   1    1    2 ar
   2    1    6 ar
   3    1   30 1
   4    2    3 ar
   5    2   31 1
   6    3    4 ar
   7    3   22 1
   8    4    5 ar
   9    4    7 1
  10    5    6 ar
  11    5   10 1
  12    6   23 1
  13    7    8 1
  14    7   15 1
  15    8    9 2
  16    8   32 1
  17    9   10 1
  18    9   12 1
  19   10   11 2
  20   12   13 1
  21   12   14 2
  22   13   33 1
  23   15   16 1
  24   15   34 1
  25   15   35 1
  26   16   17 ar
  27   16   21 ar
  28   17   18 ar
  29   17   36 1
  30   18   19 ar
  31   18   24 1
  32   19   20 ar
  33   20   21 ar
  34   20   37 1
  35   21   38 1
  36   24   25 ar
  37   24   29 ar
  38   25   26 ar
  39   25   39 1
  40   26   27 ar
  41   26   40 1
  42   27   28 ar
  43   27   41 1
  44   28   29 ar
  45   28   42 1
  46   29   43 1

#	End of record

