#	Name: ASD01816002
#	Creating user name:	WinNT
#	Creation time:	15. 06. 2019 19:34

#	Modifying user name:	WinNT
#	Modification time:	15. 06. 2019 19:34

#	Program:	/corina/corina34_cracker 3.40 0067  02.08.2006

@<TRIPOS>MOLECULE
ASD01816002
  44   49    0    0    0
SMALL
NO_CHARGES


@<TRIPOS>ATOM
   1 C1            -0.0167     1.3813     0.0096 C.ar    
   2 C2             0.0021    -0.0041     0.0020 C.ar    
   3 C3             1.1984    -0.6908    -0.0126 C.ar    
   4 C4             2.4014     0.0060    -0.0203 C.ar    
   5 C5             2.3791     1.4106    -0.0130 C.ar    
   6 C6             1.1663     2.0917     0.0022 C.ar    
   7 N7             3.6063    -0.6778    -0.0345 N.pl3   
   8 C8             4.7988    -0.0576    -0.0425 C.2     
   9 C9             4.9003     1.3117    -0.0370 C.2     
  10 C10            3.6668     2.1305    -0.0214 C.2     
  11 C11            5.9967     2.2752    -0.0433 C.2     
  12 N12            5.4234     3.4979    -0.0328 N.am    
  13 N13            4.0312     3.3808    -0.0197 N.2     
  14 C14            6.1244     4.7105    -0.0337 C.ar    
  15 O15            7.1913     2.0260    -0.0553 O.2     
  16 C16            3.5807    -2.0779    -0.0403 C.ar    
  17 C17            6.5527     5.2659    -1.2320 C.ar    
  18 C18            7.2438     6.4618    -1.2299 C.ar    
  19 C19            7.5102     7.1071    -0.0361 C.ar    
  20 C20            7.0860     6.5584     1.1600 C.ar    
  21 C21            6.3883     5.3641     1.1652 C.ar    
  22 F22            5.9738     4.8277     2.3338 F       
  23 C23            3.5791    -2.7798     1.1609 C.ar    
  24 C24            3.5510    -2.7681    -1.2454 C.ar    
  25 C25            3.5258    -4.1491    -1.2513 C.ar    
  26 C26            3.5295    -4.8503    -0.0593 C.ar    
  27 C27            3.5537    -4.1707     1.1487 C.ar    
  28 O28            3.5623    -4.6188     2.4383 O.3     
  29 C29            3.1761    -3.4876     3.2411 C.3     
  30 O30            3.5990    -2.3543     2.4582 O.3     
  31 H31           -0.9602     1.9069     0.0169 H       
  32 H32           -0.9288    -0.5516     0.0079 H       
  33 H33            1.2004    -1.7708    -0.0177 H       
  34 H34            1.1506     3.1715     0.0077 H       
  35 H35            5.7006    -0.6518    -0.0531 H       
  36 H36            6.3458     4.7630    -2.1651 H       
  37 H37            7.5772     6.8934    -2.1621 H       
  38 H38            8.0512     8.0419    -0.0381 H       
  39 H39            7.2956     7.0649     2.0905 H       
  40 H40            3.5473    -2.2244    -2.1785 H       
  41 H41            3.5027    -4.6830    -2.1898 H       
  42 H42            3.5094    -5.9300    -0.0696 H       
  43 H43            2.0961    -3.4730     3.3880 H       
  44 H44            3.6940    -3.5037     4.2000 H       
@<TRIPOS>BOND
   1    1    2 ar
   2    1    6 ar
   3    1   31 1
   4    2    3 ar
   5    2   32 1
   6    3    4 ar
   7    3   33 1
   8    4    5 ar
   9    4    7 1
  10    5    6 ar
  11    5   10 1
  12    6   34 1
  13    7    8 1
  14    7   16 1
  15    8    9 2
  16    8   35 1
  17    9   10 1
  18    9   11 1
  19   10   13 2
  20   11   12 am
  21   11   15 2
  22   12   13 1
  23   12   14 1
  24   14   17 ar
  25   14   21 ar
  26   16   23 ar
  27   16   24 ar
  28   17   18 ar
  29   17   36 1
  30   18   19 ar
  31   18   37 1
  32   19   20 ar
  33   19   38 1
  34   20   21 ar
  35   20   39 1
  36   21   22 1
  37   23   27 ar
  38   23   30 1
  39   24   25 ar
  40   24   40 1
  41   25   26 ar
  42   25   41 1
  43   26   27 ar
  44   26   42 1
  45   27   28 1
  46   28   29 1
  47   29   30 1
  48   29   43 1
  49   29   44 1

#	End of record

