#	Name: ASD01180190
#	Creating user name:	WinNT
#	Creation time:	15. 06. 2019 19:06

#	Modifying user name:	WinNT
#	Modification time:	15. 06. 2019 19:06

#	Program:	/corina/corina34_cracker 3.40 0067  02.08.2006

@<TRIPOS>MOLECULE
ASD01180190
  65   67    0    0    0
SMALL
NO_CHARGES


@<TRIPOS>ATOM
   1 C1            -1.1413     1.0853     0.1753 C.ar    
   2 C2            -0.9123    -0.2750     0.1365 C.ar    
   3 C3             0.3887    -0.7576     0.0136 C.ar    
   4 C4             1.4560     0.1414    -0.0697 C.ar    
   5 C5             1.2116     1.5050    -0.0295 C.ar    
   6 C6            -0.0828     1.9729     0.0926 C.ar    
   7 C7             0.6405    -2.2188    -0.0280 C.ar    
   8 C8             0.0811    -3.0527     0.9383 C.ar    
   9 C9             0.3184    -4.4116     0.8944 C.ar    
  10 C10            1.1100    -4.9461    -0.1061 C.ar    
  11 C11            1.6682    -4.1230    -1.0676 C.ar    
  12 C12            1.4326    -2.7635    -1.0371 C.ar    
  13 C13            1.3658    -6.4306    -0.1485 C.3     
  14 C14            0.4438    -7.0777    -1.1839 C.3     
  15 N15            2.7623    -6.6752    -0.5176 N.pl3   
  16 C16            3.7567    -6.5930     0.4423 C.ar    
  17 N17            5.0263    -6.7180     0.0808 N.ar    
  18 C18            6.0048    -6.6468     0.9590 C.ar    
  19 C19            5.7298    -6.4357     2.3109 C.ar    
  20 C20            4.3947    -6.2998     2.7216 C.ar    
  21 C21            3.4095    -6.3744     1.7745 C.ar    
  22 C22            6.8269    -6.3570     3.2943 C.2     
  23 N23            8.1056    -6.4892     2.8894 N.am    
  24 O24            6.5774    -6.1728     4.4700 O.2     
  25 C25            9.1949    -6.4111     3.8658 C.3     
  26 C26           10.5352    -6.5917     3.1503 C.3     
  27 C27           11.6557    -6.5113     4.1547 C.2     
  28 O28           12.9292    -6.6430     3.7515 O.3     
  29 O29           11.4078    -6.3283     5.3230 O.2     
  30 C30            0.6232    -8.5967    -1.1481 C.3     
  31 C31            0.1419    -9.1354     0.2007 C.3     
  32 C32           -0.1951    -9.2336    -2.2730 C.3     
  33 O33            2.7281    -0.3198    -0.1892 O.3     
  34 C34            3.7677     0.6573    -0.2691 C.3     
  35 H35           -2.1507     1.4586     0.2660 H       
  36 H36           -1.7408    -0.9648     0.2017 H       
  37 H37            2.0336     2.2025    -0.0937 H       
  38 H38           -0.2693     3.0362     0.1236 H       
  39 H39           -0.5365    -2.6364     1.7203 H       
  40 H40           -0.1146    -5.0588     1.6427 H       
  41 H41            2.2860    -4.5456    -1.8461 H       
  42 H42            1.8688    -2.1218    -1.7883 H       
  43 H43            1.1687    -6.8614     0.8332 H       
  44 H44           -0.5922    -6.8287    -0.9539 H       
  45 H45            0.6950    -6.7055    -2.1771 H       
  46 H46            2.9903    -6.8947    -1.4345 H       
  47 H47            7.0282    -6.7529     0.6307 H       
  48 H48            4.1505    -6.1357     3.7607 H       
  49 H49            2.3722    -6.2738     2.0580 H       
  50 H50            8.3046    -6.6361     1.9515 H       
  51 H51            9.1735    -5.4382     4.3570 H       
  52 H52            9.0720    -7.1970     4.6110 H       
  53 H53           10.5566    -7.5646     2.6591 H       
  54 H54           10.6581    -5.8057     2.4052 H       
  55 H55           13.6136    -6.5842     4.4322 H       
  56 H56            1.6769    -8.8413    -1.2819 H       
  57 H57            0.3320   -10.2074     0.2525 H       
  58 H58            0.6780    -8.6320     1.0052 H       
  59 H59           -0.9272    -8.9505     0.3051 H       
  60 H60            0.1478    -8.8498    -3.2339 H       
  61 H61           -0.0673   -10.3158    -2.2475 H       
  62 H62           -1.2488    -8.9889    -2.1392 H       
  63 H63            4.7312     0.1561    -0.3616 H       
  64 H64            3.6034     1.2923    -1.1397 H       
  65 H65            3.7615     1.2690     0.6331 H       
@<TRIPOS>BOND
   1    1    2 ar
   2    1    6 ar
   3    1   35 1
   4    2    3 ar
   5    2   36 1
   6    3    4 ar
   7    3    7 1
   8    4    5 ar
   9    4   33 1
  10    5    6 ar
  11    5   37 1
  12    6   38 1
  13    7    8 ar
  14    7   12 ar
  15    8    9 ar
  16    8   39 1
  17    9   10 ar
  18    9   40 1
  19   10   11 ar
  20   10   13 1
  21   11   12 ar
  22   11   41 1
  23   12   42 1
  24   13   14 1
  25   13   15 1
  26   13   43 1
  27   14   30 1
  28   14   44 1
  29   14   45 1
  30   15   16 1
  31   15   46 1
  32   16   17 ar
  33   16   21 ar
  34   17   18 ar
  35   18   19 ar
  36   18   47 1
  37   19   20 ar
  38   19   22 1
  39   20   21 ar
  40   20   48 1
  41   21   49 1
  42   22   23 am
  43   22   24 2
  44   23   25 1
  45   23   50 1
  46   25   26 1
  47   25   51 1
  48   25   52 1
  49   26   27 1
  50   26   53 1
  51   26   54 1
  52   27   28 1
  53   27   29 2
  54   28   55 1
  55   30   31 1
  56   30   32 1
  57   30   56 1
  58   31   57 1
  59   31   58 1
  60   31   59 1
  61   32   60 1
  62   32   61 1
  63   32   62 1
  64   33   34 1
  65   34   63 1
  66   34   64 1
  67   34   65 1

#	End of record

