#	Name: ASD04910222
#	Creating user name:	WinNT
#	Creation time:	15. 06. 2019 20:55

#	Modifying user name:	WinNT
#	Modification time:	15. 06. 2019 20:55

#	Program:	/corina/corina34_cracker 3.40 0067  02.08.2006

@<TRIPOS>MOLECULE
ASD04910222
  29   31    0    0    0
SMALL
NO_CHARGES


@<TRIPOS>ATOM
   1 C1            -0.0168     1.3842     0.0097 C.ar    
   2 C2             0.0021    -0.0041     0.0020 C.ar    
   3 C3             1.2282    -0.6661    -0.0132 C.ar    
   4 C4             2.3858     0.0918    -0.0202 C.ar    
   5 C5             2.2884     1.4775    -0.0118 C.ar    
   6 N6             1.1071     2.0733     0.0026 N.ar    
   7 N7            -1.1939    -0.7286     0.0100 N.pl3   
   8 N8             3.4534     2.2525    -0.0183 N.pl3   
   9 N9             4.7650     1.7628    -0.0334 N.2     
  10 C10            5.5880     2.7776    -0.0353 C.2     
  11 C11            4.8236     3.9621    -0.0213 C.2     
  12 C12            3.5068     3.6017    -0.0169 C.2     
  13 C13            5.3534     5.3474    -0.0175 C.ar    
  14 C14            6.7255     5.5630    -0.1344 C.ar    
  15 C15            7.2047     6.8608    -0.1297 C.ar    
  16 C16            6.2953     7.9028    -0.0082 C.ar    
  17 C17            4.9481     7.6171     0.1037 C.ar    
  18 N18            4.5171     6.3714     0.0915 N.ar    
  19 H19           -0.9626     1.9054     0.0169 H       
  20 H20            1.2738    -1.7451    -0.0191 H       
  21 H21            3.3533    -0.3880    -0.0316 H       
  22 H22           -2.0439    -0.2614     0.0209 H       
  23 H23           -1.1735    -1.6984     0.0046 H       
  24 H24            6.6663     2.7192    -0.0457 H       
  25 H25            2.6613     4.2737    -0.0106 H       
  26 H26            7.4050     4.7287    -0.2268 H       
  27 H27            8.2627     7.0589    -0.2183 H       
  28 H28            6.6378     8.9270    -0.0010 H       
  29 H29            4.2382     8.4255     0.1987 H       
@<TRIPOS>BOND
   1    1    2 ar
   2    1    6 ar
   3    1   19 1
   4    2    3 ar
   5    2    7 1
   6    3    4 ar
   7    3   20 1
   8    4    5 ar
   9    4   21 1
  10    5    6 ar
  11    5    8 1
  12    7   22 1
  13    7   23 1
  14    8    9 1
  15    8   12 1
  16    9   10 2
  17   10   11 1
  18   10   24 1
  19   11   12 2
  20   11   13 1
  21   12   25 1
  22   13   14 ar
  23   13   18 ar
  24   14   15 ar
  25   14   26 1
  26   15   16 ar
  27   15   27 1
  28   16   17 ar
  29   16   28 1
  30   17   18 ar
  31   17   29 1

#	End of record

