#	Name: ASD01150887
#	Creating user name:	WinNT
#	Creation time:	15. 06. 2019 19:05

#	Modifying user name:	WinNT
#	Modification time:	15. 06. 2019 19:05

#	Program:	/corina/corina34_cracker 3.40 0067  02.08.2006

@<TRIPOS>MOLECULE
ASD01150887
  54   55    0    0    0
SMALL
NO_CHARGES


@<TRIPOS>ATOM
   1 C1            -0.0184     1.5028     0.0103 C.3     
   2 C2             0.0021    -0.0041     0.0020 C.2     
   3 N3            -1.1558    -0.6938     0.0094 N.am    
   4 O4             1.0604    -0.5961    -0.0113 O.2     
   5 C5            -1.1370    -2.0846     0.0017 C.2     
   6 N6            -0.0479    -2.8568    -0.0124 N.2     
   7 C7            -0.3960    -4.1274    -0.0155 C.2     
   8 N8            -1.7505    -4.2227    -0.0034 N.pl3   
   9 C9            -2.2477    -2.9185     0.0134 C.2     
  10 C10           -3.6019    -2.5272     0.0301 C.2     
  11 O11           -4.5753    -3.4633     0.0308 O.3     
  12 O12           -3.8940    -1.3450     0.0438 O.2     
  13 C13           -5.9254    -2.9954     0.0481 C.3     
  14 C14           -6.8797    -4.1913     0.0462 C.3     
  15 S15            0.7212    -5.4899    -0.0338 S.3     
  16 C16            2.2988    -4.6026    -0.0440 C.3     
  17 C17           -2.5388    -5.4575    -0.0027 C.3     
  18 C18           -2.7963    -5.8883     1.4183 C.ar    
  19 C19           -3.9235    -5.4417     2.0824 C.ar    
  20 C20           -4.1596    -5.8369     3.3859 C.ar    
  21 C21           -3.2689    -6.6789     4.0250 C.ar    
  22 C22           -2.1423    -7.1262     3.3606 C.ar    
  23 C23           -1.9084    -6.7345     2.0557 C.ar    
  24 C24            1.4170     2.0324    -0.0006 C.3     
  25 C25           -0.7584     2.0096    -1.2292 C.3     
  26 C26            1.3994     3.5564     0.1335 C.3     
  27 C27            2.8348     4.0859     0.1227 C.3     
  28 H28           -0.5286     1.8543     0.9071 H       
  29 H29           -2.0023    -0.2203     0.0200 H       
  30 H30           -6.0918    -2.3992     0.9452 H       
  31 H31           -6.1089    -2.3827    -0.8346 H       
  32 H32           -6.7133    -4.7875    -0.8510 H       
  33 H33           -6.6962    -4.8040     0.9288 H       
  34 H34           -7.9095    -3.8343     0.0594 H       
  35 H35            3.1192    -5.3202    -0.0559 H       
  36 H36            2.3551    -3.9718    -0.9312 H       
  37 H37            2.3722    -3.9816     0.8487 H       
  38 H38           -3.4891    -5.2822    -0.5071 H       
  39 H39           -1.9889    -6.2400    -0.5256 H       
  40 H40           -4.6193    -4.7839     1.5831 H       
  41 H41           -5.0399    -5.4874     3.9050 H       
  42 H42           -3.4531    -6.9870     5.0436 H       
  43 H43           -1.4462    -7.7838     3.8601 H       
  44 H44           -1.0281    -7.0840     1.5365 H       
  45 H45            1.9699     1.6006     0.8337 H       
  46 H46            1.8993     1.7557    -0.9381 H       
  47 H47           -1.7809     1.6323    -1.2215 H       
  48 H48           -0.7731     3.0995    -1.2232 H       
  49 H49           -0.2482     1.6581    -2.1260 H       
  50 H50            0.8465     3.9881    -0.7007 H       
  51 H51            0.9171     3.8331     1.0711 H       
  52 H52            3.3876     3.6542     0.9569 H       
  53 H53            3.3170     3.8093    -0.8149 H       
  54 H54            2.8222     5.1717     0.2182 H       
@<TRIPOS>BOND
   1    1    2 1
   2    1   24 1
   3    1   25 1
   4    1   28 1
   5    2    3 am
   6    2    4 2
   7    3    5 1
   8    3   29 1
   9    5    6 1
  10    5    9 2
  11    6    7 2
  12    7    8 1
  13    7   15 1
  14    8    9 1
  15    8   17 1
  16    9   10 1
  17   10   11 1
  18   10   12 2
  19   11   13 1
  20   13   14 1
  21   13   30 1
  22   13   31 1
  23   14   32 1
  24   14   33 1
  25   14   34 1
  26   15   16 1
  27   16   35 1
  28   16   36 1
  29   16   37 1
  30   17   18 1
  31   17   38 1
  32   17   39 1
  33   18   19 ar
  34   18   23 ar
  35   19   20 ar
  36   19   40 1
  37   20   21 ar
  38   20   41 1
  39   21   22 ar
  40   21   42 1
  41   22   23 ar
  42   22   43 1
  43   23   44 1
  44   24   26 1
  45   24   45 1
  46   24   46 1
  47   25   47 1
  48   25   48 1
  49   25   49 1
  50   26   27 1
  51   26   50 1
  52   26   51 1
  53   27   52 1
  54   27   53 1
  55   27   54 1

#	End of record

