#	Name: ASD04560157
#	Creating user name:	WinNT
#	Creation time:	15. 06. 2019 20:49

#	Modifying user name:	WinNT
#	Modification time:	15. 06. 2019 20:49

#	Program:	/corina/corina34_cracker 3.40 0067  02.08.2006

@<TRIPOS>MOLECULE
ASD04560157
  57   60    0    0    0
SMALL
NO_CHARGES


@<TRIPOS>ATOM
   1 C1            -1.3208     0.6236    -1.4124 C.ar    
   2 C2            -2.3601    -0.2184    -1.7125 C.ar    
   3 C3            -2.9197    -0.2093    -2.9882 C.ar    
   4 C4            -2.4253     0.6548    -3.9625 C.ar    
   5 C5            -1.3858     1.4988    -3.6684 C.ar    
   6 C6            -0.8223     1.4923    -2.3885 C.ar    
   7 C7             0.2955     2.3992    -2.0689 C.2     
   8 O8             1.1024     2.6963    -2.9289 O.2     
   9 N9             0.4230     2.8988    -0.8237 N.am    
  10 C10            1.5397     3.6746    -0.4919 C.ar    
  11 C11            2.8187     3.1628    -0.6670 C.ar    
  12 C12            2.4737     5.7232     0.3338 C.ar    
  13 C13            1.3704     4.9592     0.0075 C.ar    
  14 S14           -4.2551    -1.2935    -3.3702 S.3     
  15 C15            3.9193     3.9301    -0.3394 C.ar    
  16 C16            3.7481     5.2088     0.1638 C.ar    
  17 F17            4.8260     5.9578     0.4837 F       
  18 C18           -4.6123    -0.9050    -5.1058 C.3     
  19 C19           -5.7518    -1.7649    -5.5887 C.ar    
  20 C20           -7.0453    -1.2482    -5.6353 C.ar    
  21 C21           -5.5154    -3.0636    -5.9911 C.ar    
  22 C22           -8.0946    -2.0491    -6.0836 C.ar    
  23 C23           -7.8478    -3.3477    -6.4785 C.ar    
  24 C24           -0.6072     2.6300     0.1825 C.3     
  25 C25           -6.5605    -3.8539    -6.4352 C.ar    
  26 B26           -7.3198     0.2303    -5.1840 Du      
  27 O27           -8.2595     1.0257    -5.8916 O.3     
  28 O28           -6.6284     0.7720    -4.0683 O.3     
  29 C29            0.0260     1.9907     1.3914 C.ar    
  30 C30           -0.4004     2.3375     2.6598 C.ar    
  31 C31            1.0293     1.0533     1.2318 C.ar    
  32 C32            1.6102     0.4669     2.3406 C.ar    
  33 C33            1.1880     0.8182     3.6092 C.ar    
  34 C34            0.1804     1.7511     3.7687 C.ar    
  35 H35           -0.8903     0.6193    -0.4220 H       
  36 H36           -2.7453    -0.8897    -0.9592 H       
  37 H37           -2.8611     0.6597    -4.9506 H       
  38 H38           -1.0025     2.1681    -4.4244 H       
  39 H39            2.9527     2.1653    -1.0587 H       
  40 H40            2.3425     6.7224     0.7222 H       
  41 H41            0.3767     5.3608     0.1402 H       
  42 H42            4.9142     3.5325    -0.4754 H       
  43 H43           -4.8876     0.1459    -5.1936 H       
  44 H44           -3.7274    -1.1007    -5.7114 H       
  45 H45           -4.5127    -3.4636    -5.9597 H       
  46 H46           -9.0990    -1.6538    -6.1214 H       
  47 H47           -8.6599    -3.9690    -6.8260 H       
  48 H48           -1.0834     3.5661     0.4741 H       
  49 H49           -1.3556     1.9562    -0.2347 H       
  50 H50           -6.3717    -4.8711    -6.7452 H       
  51 H51           -8.7335     0.5494    -6.5870 H       
  52 H52           -5.9935     0.1638    -3.6659 H       
  53 H53           -1.1871     3.0668     2.7844 H       
  54 H54            1.3592     0.7788     0.2407 H       
  55 H55            2.3936    -0.2660     2.2159 H       
  56 H56            1.6415     0.3597     4.4755 H       
  57 H57           -0.1494     2.0255     4.7598 H       
@<TRIPOS>BOND
   1    1    2 ar
   2    1    6 ar
   3    1   35 1
   4    2    3 ar
   5    2   36 1
   6    3    4 ar
   7    3   14 1
   8    4    5 ar
   9    4   37 1
  10    5    6 ar
  11    5   38 1
  12    6    7 1
  13    7    8 2
  14    7    9 am
  15    9   10 1
  16    9   24 1
  17   10   11 ar
  18   10   13 ar
  19   11   15 ar
  20   11   39 1
  21   12   13 ar
  22   12   16 ar
  23   12   40 1
  24   13   41 1
  25   14   18 1
  26   15   16 ar
  27   15   42 1
  28   16   17 1
  29   18   19 1
  30   18   43 1
  31   18   44 1
  32   19   20 ar
  33   19   21 ar
  34   20   26 1
  35   20   22 ar
  36   21   25 ar
  37   21   45 1
  38   22   23 ar
  39   22   46 1
  40   23   25 ar
  41   23   47 1
  42   24   29 1
  43   24   48 1
  44   24   49 1
  45   25   50 1
  46   26   27 1
  47   26   28 1
  48   27   51 1
  49   28   52 1
  50   29   30 ar
  51   29   31 ar
  52   30   34 ar
  53   30   53 1
  54   31   32 ar
  55   31   54 1
  56   32   33 ar
  57   32   55 1
  58   33   34 ar
  59   33   56 1
  60   34   57 1

#	End of record

