#	Name: ASD01903043
#	Creating user name:	WinNT
#	Creation time:	15. 06. 2019 19:54

#	Modifying user name:	WinNT
#	Modification time:	15. 06. 2019 19:54

#	Program:	/corina/corina34_cracker 3.40 0067  02.08.2006

@<TRIPOS>MOLECULE
ASD01903043
  51   54    0    0    0
SMALL
NO_CHARGES


@<TRIPOS>ATOM
   1 C1             2.5808     1.5873    -1.8119 C.ar    
   2 C2             2.6697     0.2639    -1.4268 C.ar    
   3 C3             1.5663    -0.5722    -1.5542 C.ar    
   4 C4             0.3759    -0.0766    -2.0685 C.ar    
   5 C5             0.2876     1.2468    -2.4535 C.ar    
   6 C6             1.3893     2.0822    -2.3264 C.ar    
   7 N7             1.2990     3.4242    -2.7165 N.am    
   8 C8             0.1508     4.1047    -2.5290 C.2     
   9 O9            -0.8319     3.5321    -2.1005 O.2     
  10 C10            0.0866     5.5503    -2.8453 C.ar    
  11 N11            1.1630     6.1702    -3.3131 N.ar    
  12 C12            1.1481     7.4522    -3.6063 C.ar    
  13 C13           -0.0007     8.2079    -3.4361 C.ar    
  14 C14           -1.1480     7.6003    -2.9499 C.ar    
  15 C15           -1.1050     6.2470    -2.6547 C.ar    
  16 Cl16           4.1588    -0.3554    -0.7843 Cl      
  17 N17            1.6559    -1.9135    -1.1646 N.3     
  18 C18            2.5749    -2.6553    -2.0381 C.3     
  19 C19            2.7851    -4.0644    -1.4738 C.3     
  20 N20            1.4688    -4.6914    -1.2804 N.am    
  21 C21            0.4466    -3.9462    -0.5300 C.3     
  22 C22            0.3284    -2.5418    -1.1315 C.3     
  23 C23            1.2061    -5.9161    -1.7780 C.2     
  24 O24            2.0843    -6.5483    -2.3316 O.2     
  25 C25           -0.1502    -6.4905    -1.6504 C.ar    
  26 C26           -0.7107    -7.2062    -2.7095 C.ar    
  27 C27           -1.9766    -7.7401    -2.5837 C.ar    
  28 C28           -2.6904    -7.5669    -1.4112 C.ar    
  29 C29           -2.1405    -6.8585    -0.3576 C.ar    
  30 C30           -0.8733    -6.3244    -0.4682 C.ar    
  31 H31            3.4364     2.2383    -1.7090 H       
  32 H32           -0.4812    -0.7262    -2.1679 H       
  33 H33           -0.6386     1.6319    -2.8538 H       
  34 H34            2.0628     3.8640    -3.1216 H       
  35 H35            2.0438     7.9225    -3.9845 H       
  36 H36           -0.0022     9.2601    -3.6795 H       
  37 H37           -2.0559     8.1678    -2.8084 H       
  38 H38           -1.9801     5.7413    -2.2742 H       
  39 H39            2.1492    -2.7241    -3.0392 H       
  40 H40            3.5318    -2.1355    -2.0844 H       
  41 H41            3.3729    -4.6559    -2.1757 H       
  42 H42            3.3051    -4.0021    -0.5179 H       
  43 H43           -0.5117    -4.4597    -0.6079 H       
  44 H44            0.7418    -3.8727     0.5167 H       
  45 H45           -0.3438    -1.9397    -0.5202 H       
  46 H46           -0.0660    -2.6122    -2.1452 H       
  47 H47           -0.1548    -7.3415    -3.6255 H       
  48 H48           -2.4115    -8.2941    -3.4025 H       
  49 H49           -3.6813    -7.9862    -1.3181 H       
  50 H50           -2.7030    -6.7269     0.5550 H       
  51 H51           -0.4451    -5.7719     0.3551 H       
@<TRIPOS>BOND
   1    1    2 ar
   2    1    6 ar
   3    1   31 1
   4    2    3 ar
   5    2   16 1
   6    3    4 ar
   7    3   17 1
   8    4    5 ar
   9    4   32 1
  10    5    6 ar
  11    5   33 1
  12    6    7 1
  13    7    8 am
  14    7   34 1
  15    8    9 2
  16    8   10 1
  17   10   11 ar
  18   10   15 ar
  19   11   12 ar
  20   12   13 ar
  21   12   35 1
  22   13   14 ar
  23   13   36 1
  24   14   15 ar
  25   14   37 1
  26   15   38 1
  27   17   18 1
  28   17   22 1
  29   18   19 1
  30   18   39 1
  31   18   40 1
  32   19   20 1
  33   19   41 1
  34   19   42 1
  35   20   21 1
  36   20   23 am
  37   21   22 1
  38   21   43 1
  39   21   44 1
  40   22   45 1
  41   22   46 1
  42   23   24 2
  43   23   25 1
  44   25   26 ar
  45   25   30 ar
  46   26   27 ar
  47   26   47 1
  48   27   28 ar
  49   27   48 1
  50   28   29 ar
  51   28   49 1
  52   29   30 ar
  53   29   50 1
  54   30   51 1

#	End of record

