#	Name: ASD01411145
#	Creating user name:	WinNT
#	Creation time:	15. 06. 2019 19:19

#	Modifying user name:	WinNT
#	Modification time:	15. 06. 2019 19:19

#	Program:	/corina/corina34_cracker 3.40 0067  02.08.2006

@<TRIPOS>MOLECULE
ASD01411145
  89   93    0    0    0
SMALL
NO_CHARGES


@<TRIPOS>ATOM
   1 C1             0.0139     1.5432     0.4676 C.ar    
   2 C2             0.0016     0.1675     0.6648 C.ar    
   3 C3            -1.1710    -0.5468     0.5249 C.ar    
   4 C4            -2.3483     0.1055     0.1861 C.ar    
   5 C5            -2.3427     1.4944    -0.0139 C.ar    
   6 C6            -1.1516     2.2091     0.1347 C.ar    
   7 O7             1.1745     2.2375     0.6079 O.3     
   8 C8             2.1609     2.0188    -0.2975 C.ar    
   9 N9            -3.5322    -0.6167     0.0445 N.am    
  10 C10           -3.9461    -0.9990    -1.1798 C.2     
  11 C11           -5.2781    -1.6842    -1.3451 C.3     
  12 O12           -3.2466    -0.7916    -2.1486 O.2     
  13 C13           -5.5975    -1.8259    -2.8347 C.3     
  14 C14           -5.2216    -3.0711    -0.7014 C.3     
  15 C15           -6.5739    -3.7667    -0.8692 C.3     
  16 C16           -6.8932    -3.9084    -2.3588 C.3     
  17 C17           -6.9498    -2.5215    -3.0024 C.3     
  18 C18           -8.2456    -4.6041    -2.5266 C.3     
  19 N19            1.9323     1.2361    -1.3393 N.ar    
  20 C20           -4.3266    -0.9602     1.2266 C.3     
  21 C21           -4.7082     0.3192     1.9739 C.3     
  22 C22            3.3994     2.6233    -0.1249 C.ar    
  23 C23            4.3972     2.3923    -1.0560 C.ar    
  24 C24            4.1190     1.5608    -2.1319 C.ar    
  25 C25            2.8631     0.9973    -2.2432 C.ar    
  26 C26            5.1742     1.2808    -3.1707 C.3     
  27 N27            5.9487     0.0969    -2.7752 N.3     
  28 C28            6.8243    -0.3480    -3.8670 C.3     
  29 C29           -3.5048    -1.8634     2.1484 C.3     
  30 C30           -5.5378    -0.0395     3.2084 C.3     
  31 C31           -4.7160    -0.9427     4.1303 C.3     
  32 C32           -4.3344    -2.2221     3.3830 C.3     
  33 O33           -5.4908    -1.2778     5.2833 O.3     
  34 C34           -4.7132    -1.5020     6.4610 C.3     
  35 C35            7.7182    -1.4879    -3.3735 C.3     
  36 C36            6.8405    -2.6471    -2.8934 C.3     
  37 C37            5.9047    -2.1455    -1.7902 C.3     
  38 C38            5.0633    -0.9865    -2.3296 C.3     
  39 F39            8.5381    -1.9248    -4.4195 F       
  40 F40            8.5124    -1.0339    -2.3150 F       
  41 C41           -3.5878     2.1961    -0.3744 C.2     
  42 O42           -4.5999     1.5617    -0.5976 O.2     
  43 O43           -3.6037     3.5410    -0.4565 O.3     
  44 C44            3.6534     3.5191     1.0601 C.3     
  45 F45            4.9656     4.0014     1.0074 F       
  46 F46            2.7596     4.5950     1.0314 F       
  47 F47            3.4707     2.7925     2.2416 F       
  48 H48            0.9147    -0.3453     0.9285 H       
  49 H49           -1.1724    -1.6158     0.6791 H       
  50 H50           -1.1395     3.2783    -0.0172 H       
  51 H51           -6.0544    -1.0908    -0.8619 H       
  52 H52           -5.6378    -0.8378    -3.2932 H       
  53 H53           -4.8212    -2.4193    -3.3178 H       
  54 H54           -4.4453    -3.6645    -1.1846 H       
  55 H55           -4.9941    -2.9701     0.3598 H       
  56 H56           -6.5336    -4.7548    -0.4107 H       
  57 H57           -7.3501    -3.1733    -0.3861 H       
  58 H58           -6.1170    -4.5018    -2.8419 H       
  59 H59           -7.7260    -1.9282    -2.5193 H       
  60 H60           -7.1773    -2.6225    -4.0636 H       
  61 H61           -9.0218    -4.0107    -2.0434 H       
  62 H62           -8.4731    -4.7050    -3.5878 H       
  63 H63           -8.2053    -5.5921    -2.0680 H       
  64 H64           -5.2311    -1.4837     0.9170 H       
  65 H65           -3.8037     0.8427     2.2835 H       
  66 H66           -5.2937     0.9627     1.3172 H       
  67 H67            5.3699     2.8491    -0.9480 H       
  68 H68            2.6417     0.3492    -3.0783 H       
  69 H69            4.6967     1.0977    -4.1334 H       
  70 H70            5.8401     2.1398    -3.2530 H       
  71 H71            6.2158    -0.6985    -4.7006 H       
  72 H72            7.4460     0.4846    -4.1962 H       
  73 H73           -3.2329    -2.7749     1.6160 H       
  74 H74           -2.6003    -1.3399     2.4581 H       
  75 H75           -5.8097     0.8719     3.7408 H       
  76 H76           -6.4423    -0.5630     2.8988 H       
  77 H77           -3.8115    -0.4193     4.4399 H       
  78 H78           -5.2389    -2.7456     3.0733 H       
  79 H79           -3.7489    -2.8656     4.0397 H       
  80 H80           -5.3744    -1.7510     7.2911 H       
  81 H81           -4.0212    -2.3262     6.2880 H       
  82 H82           -4.1509    -0.6000     6.7024 H       
  83 H83            6.2500    -3.0265    -3.7274 H       
  84 H84            7.4722    -3.4439    -2.5009 H       
  85 H85            5.2477    -2.9557    -1.4740 H       
  86 H86            6.4949    -1.8021    -0.9406 H       
  87 H87            4.4060    -0.6177    -1.5422 H       
  88 H88            4.4630    -1.3340    -3.1705 H       
  89 H89           -4.4434     3.9563    -0.6962 H       
@<TRIPOS>BOND
   1    1    2 ar
   2    1    7 1
   3    1    6 ar
   4    2    3 ar
   5    2   48 1
   6    3    4 ar
   7    3   49 1
   8    4    5 ar
   9    4    9 1
  10    5    6 ar
  11    5   41 1
  12    6   50 1
  13    7    8 1
  14    8   22 ar
  15    8   19 ar
  16    9   10 am
  17    9   20 1
  18   10   11 1
  19   10   12 2
  20   11   13 1
  21   11   14 1
  22   11   51 1
  23   13   17 1
  24   13   52 1
  25   13   53 1
  26   14   15 1
  27   14   54 1
  28   14   55 1
  29   15   16 1
  30   15   56 1
  31   15   57 1
  32   16   17 1
  33   16   18 1
  34   16   58 1
  35   17   59 1
  36   17   60 1
  37   18   61 1
  38   18   62 1
  39   18   63 1
  40   19   25 ar
  41   20   21 1
  42   20   29 1
  43   20   64 1
  44   21   30 1
  45   21   65 1
  46   21   66 1
  47   22   23 ar
  48   22   44 1
  49   23   24 ar
  50   23   67 1
  51   24   25 ar
  52   24   26 1
  53   25   68 1
  54   26   27 1
  55   26   69 1
  56   26   70 1
  57   27   28 1
  58   27   38 1
  59   28   35 1
  60   28   71 1
  61   28   72 1
  62   29   32 1
  63   29   73 1
  64   29   74 1
  65   30   31 1
  66   30   75 1
  67   30   76 1
  68   31   32 1
  69   31   33 1
  70   31   77 1
  71   32   78 1
  72   32   79 1
  73   33   34 1
  74   34   80 1
  75   34   81 1
  76   34   82 1
  77   35   36 1
  78   35   39 1
  79   35   40 1
  80   36   37 1
  81   36   83 1
  82   36   84 1
  83   37   38 1
  84   37   85 1
  85   37   86 1
  86   38   87 1
  87   38   88 1
  88   41   42 2
  89   41   43 1
  90   43   89 1
  91   44   45 1
  92   44   46 1
  93   44   47 1

#	End of record

