#	Name: ASD03320061
#	Creating user name:	WinNT
#	Creation time:	15. 06. 2019 20:36

#	Modifying user name:	WinNT
#	Modification time:	15. 06. 2019 20:36

#	Program:	/corina/corina34_cracker 3.40 0067  02.08.2006

@<TRIPOS>MOLECULE
ASD03320061
  63   67    0    0    0
SMALL
NO_CHARGES


@<TRIPOS>ATOM
   1 C1             1.4002    -1.3467     0.5854 C.ar    
   2 C2             1.8633    -2.6570     0.4678 C.ar    
   3 C3             2.2865    -0.2943     0.5229 C.ar    
   4 C4             3.6493    -0.5396     0.3416 C.ar    
   5 C5             4.1120    -1.8519     0.2239 C.ar    
   6 C6             3.2242    -2.9030     0.2867 C.ar    
   7 C7             4.6014     0.5893     0.2738 C.2     
   8 N8             4.2871     1.6946    -0.4304 N.am    
   9 O9             5.6677     0.5206     0.8533 O.2     
  10 C10            0.9081    -3.7896     0.5358 C.ar    
  11 C11            1.3583    -5.1021     0.4197 C.ar    
  12 C12            0.4184    -6.1305     0.4911 C.ar    
  13 N13           -0.8635    -5.8219     0.6660 N.ar    
  14 C14           -1.2496    -4.5660     0.7715 C.ar    
  15 N15           -0.3949    -3.5668     0.7147 N.ar    
  16 N16            0.8147    -7.4548     0.3807 N.pl3   
  17 C17            5.1711     2.8685    -0.4140 C.3     
  18 C18            5.5385     3.2255    -1.8597 C.3     
  19 N19            4.3058     3.2783    -2.6581 N.am    
  20 C20            3.4217     2.1044    -2.6745 C.3     
  21 C21            3.0572     1.7453    -1.2333 C.3     
  22 C22            3.9915     4.3836    -3.3624 C.2     
  23 C23            2.7023     4.4610    -4.0787 C.ar    
  24 O24            4.7692     5.3168    -3.4080 O.2     
  25 C25            2.3459     3.4662    -4.9919 C.ar    
  26 C26            1.1411     3.5444    -5.6572 C.ar    
  27 C27            0.2836     4.6060    -5.4234 C.ar    
  28 C28            0.6273     5.5957    -4.5221 C.ar    
  29 C29            1.8298     5.5276    -3.8418 C.ar    
  30 C30           -0.1140    -8.4809     0.5774 C.ar    
  31 C31            0.0018    -9.6698    -0.1316 C.ar    
  32 C32           -0.9171   -10.6817     0.0654 C.ar    
  33 C33           -1.9519   -10.5122     0.9670 C.ar    
  34 C34           -2.0704    -9.3297     1.6741 C.ar    
  35 C35           -1.1513    -8.3161     1.4864 C.ar    
  36 C36           -2.9531   -11.6184     1.1790 C.3     
  37 F37            2.1655     6.4949    -2.9604 F       
  38 H38            0.3457    -1.1570     0.7211 H       
  39 H39            1.9277     0.7203     0.6137 H       
  40 H40            5.1657    -2.0426     0.0833 H       
  41 H41            3.5818    -3.9179     0.1957 H       
  42 H42            2.4069    -5.3181     0.2779 H       
  43 H43           -2.2985    -4.3507     0.9130 H       
  44 H44            1.7363    -7.6691     0.1671 H       
  45 H45            4.6550     3.7087     0.0504 H       
  46 H46            6.0765     2.6368     0.1469 H       
  47 H47            6.0311     4.1976    -1.8825 H       
  48 H48            6.2054     2.4651    -2.2661 H       
  49 H49            2.5164     2.3361    -3.2355 H       
  50 H50            3.9379     1.2642    -3.1390 H       
  51 H51            2.5647     0.7731    -1.2120 H       
  52 H52            2.3908     2.5048    -0.8245 H       
  53 H53            3.0132     2.6374    -5.1767 H       
  54 H54            0.8653     2.7752    -6.3635 H       
  55 H55           -0.6586     4.6613    -5.9484 H       
  56 H56           -0.0461     6.4212    -4.3452 H       
  57 H57            0.8093    -9.8025    -0.8364 H       
  58 H58           -0.8277   -11.6063    -0.4855 H       
  59 H59           -2.8801    -9.2003     2.3769 H       
  60 H60           -1.2443    -7.3928     2.0390 H       
  61 H61           -2.6066   -12.2739     1.9780 H       
  62 H62           -3.9165   -11.1889     1.4535 H       
  63 H63           -3.0604   -12.1927     0.2587 H       
@<TRIPOS>BOND
   1    1    2 ar
   2    1    3 ar
   3    1   38 1
   4    2   10 1
   5    2    6 ar
   6    3    4 ar
   7    3   39 1
   8    4    5 ar
   9    4    7 1
  10    5    6 ar
  11    5   40 1
  12    6   41 1
  13    7    8 am
  14    7    9 2
  15    8   17 1
  16    8   21 1
  17   10   11 ar
  18   10   15 ar
  19   11   12 ar
  20   11   42 1
  21   12   13 ar
  22   12   16 1
  23   13   14 ar
  24   14   15 ar
  25   14   43 1
  26   16   30 1
  27   16   44 1
  28   17   18 1
  29   17   45 1
  30   17   46 1
  31   18   19 1
  32   18   47 1
  33   18   48 1
  34   19   20 1
  35   19   22 am
  36   20   21 1
  37   20   49 1
  38   20   50 1
  39   21   51 1
  40   21   52 1
  41   22   23 1
  42   22   24 2
  43   23   25 ar
  44   23   29 ar
  45   25   26 ar
  46   25   53 1
  47   26   27 ar
  48   26   54 1
  49   27   28 ar
  50   27   55 1
  51   28   29 ar
  52   28   56 1
  53   29   37 1
  54   30   31 ar
  55   30   35 ar
  56   31   32 ar
  57   31   57 1
  58   32   33 ar
  59   32   58 1
  60   33   34 ar
  61   33   36 1
  62   34   35 ar
  63   34   59 1
  64   35   60 1
  65   36   61 1
  66   36   62 1
  67   36   63 1

#	End of record

