#	Name: ASD03091067
#	Creating user name:	WinNT
#	Creation time:	15. 06. 2019 20:30

#	Modifying user name:	WinNT
#	Modification time:	15. 06. 2019 20:30

#	Program:	/corina/corina34_cracker 3.40 0067  02.08.2006

@<TRIPOS>MOLECULE
ASD03091067
  48   50    0    0    0
SMALL
NO_CHARGES


@<TRIPOS>ATOM
   1 C1             0.0560     1.5414     0.2837 C.ar    
   2 C2             1.3216    -0.6729     0.3271 C.2     
   3 C3             0.0935     0.0893     0.5678 C.2     
   4 O4             1.3496    -1.8689     0.5520 O.2     
   5 N5             2.4202    -0.0498    -0.1434 N.am    
   6 C6            -1.0143    -0.5388     1.0534 C.2     
   7 N7            -2.1915     0.1397     1.1582 N.pl3   
   8 C8            -3.3534    -0.5320     1.5539 C.ar    
   9 C9            -4.5534     0.1592     1.6608 C.ar    
  10 C10           -5.6994    -0.5045     2.0514 C.ar    
  11 C11           -5.6525    -1.8612     2.3375 C.ar    
  12 C12           -4.4542    -2.5523     2.2315 C.ar    
  13 C13           -3.3086    -1.8916     1.8346 C.ar    
  14 C14            3.6411    -0.7307    -0.1982 C.ar    
  15 C15            4.8348    -0.0274    -0.1010 C.ar    
  16 C16            6.0386    -0.7021    -0.1549 C.ar    
  17 C17            6.0562    -2.0775    -0.3061 C.ar    
  18 C18            4.8683    -2.7806    -0.4037 C.ar    
  19 C19            3.6615    -2.1116    -0.3442 C.ar    
  20 Cl20           7.5712    -2.9224    -0.3741 Cl      
  21 C21            0.1506     1.9917    -1.0332 C.ar    
  22 C22            0.1136     3.3516    -1.2825 C.ar    
  23 C23           -0.0169     4.2199    -0.2069 C.ar    
  24 C24           -0.1055     3.7061     1.0729 C.ar    
  25 N25           -0.0729     2.4055     1.2840 N.ar    
  26 O26           -6.7815    -2.5138     2.7226 O.3     
  27 C27           -8.0238    -4.4674     3.4160 C.3     
  28 C28           -6.6605    -3.9101     3.0014 C.3     
  29 H29            2.3643     0.8708    -0.4440 H       
  30 H30           -0.9592    -1.5744     1.3551 H       
  31 H31           -2.2239     1.0884     0.9584 H       
  32 H32           -4.5900     1.2155     1.4388 H       
  33 H33           -6.6326     0.0328     2.1346 H       
  34 H34           -4.4185    -3.6083     2.4547 H       
  35 H35           -2.3769    -2.4308     1.7471 H       
  36 H36            4.8216     1.0461     0.0163 H       
  37 H37            6.9671    -0.1557    -0.0793 H       
  38 H38            4.8848    -3.8540    -0.5224 H       
  39 H39            2.7347    -2.6613    -0.4156 H       
  40 H40            0.2516     1.2884    -1.8466 H       
  41 H41            0.1850     3.7299    -2.2916 H       
  42 H42           -0.0485     5.2872    -0.3689 H       
  43 H43           -0.2070     4.3794     1.9112 H       
  44 H44           -8.3727    -3.9476     4.3083 H       
  45 H45           -8.7383    -4.3192     2.6063 H       
  46 H46           -7.9315    -5.5324     3.6287 H       
  47 H47           -6.3116    -4.4299     2.1092 H       
  48 H48           -5.9459    -4.0584     3.8111 H       
@<TRIPOS>BOND
   1    1    3 1
   2    1   21 ar
   3    1   25 ar
   4    2    3 1
   5    2    4 2
   6    2    5 am
   7    3    6 2
   8    5   14 1
   9    5   29 1
  10    6    7 1
  11    6   30 1
  12    7    8 1
  13    7   31 1
  14    8    9 ar
  15    8   13 ar
  16    9   10 ar
  17    9   32 1
  18   10   11 ar
  19   10   33 1
  20   11   12 ar
  21   11   26 1
  22   12   13 ar
  23   12   34 1
  24   13   35 1
  25   14   15 ar
  26   14   19 ar
  27   15   16 ar
  28   15   36 1
  29   16   17 ar
  30   16   37 1
  31   17   18 ar
  32   17   20 1
  33   18   19 ar
  34   18   38 1
  35   19   39 1
  36   21   22 ar
  37   21   40 1
  38   22   23 ar
  39   22   41 1
  40   23   24 ar
  41   23   42 1
  42   24   25 ar
  43   24   43 1
  44   26   28 1
  45   27   28 1
  46   27   44 1
  47   27   45 1
  48   27   46 1
  49   28   47 1
  50   28   48 1

#	End of record

