#	Name: ASD03331738
#	Creating user name:	WinNT
#	Creation time:	15. 06. 2019 20:39

#	Modifying user name:	WinNT
#	Modification time:	15. 06. 2019 20:39

#	Program:	/corina/corina34_cracker 3.40 0067  02.08.2006

@<TRIPOS>MOLECULE
ASD03331738
  41   44    0    0    0
SMALL
NO_CHARGES


@<TRIPOS>ATOM
   1 C1            -0.0170     1.3843     0.0683 C.ar    
   2 C2             0.0006     0.0032     0.1245 C.ar    
   3 C3             1.2063    -0.6728     0.1335 C.ar    
   4 C4             2.3944     0.0322     0.0858 C.ar    
   5 C5             2.3768     1.4133     0.0287 C.ar    
   6 C6             1.1711     2.0894     0.0211 C.ar    
   7 C7             3.6720     2.1819    -0.0228 C.3     
   8 C8             3.9566     2.5920    -1.4447 C.2     
   9 C9             3.2336     3.5975    -2.2217 C.ar    
  10 N10            4.8802     2.7221    -3.4724 N.pl3   
  11 C11            4.9358     2.1028    -2.2452 C.2     
  12 C12            2.1483     4.4348    -1.9481 C.ar    
  13 C13            1.6903     5.2958    -2.9203 C.ar    
  14 C14            2.3007     5.3353    -4.1675 C.ar    
  15 C15            3.3714     4.5163    -4.4524 C.ar    
  16 C16            3.8512     3.6387    -3.4863 C.ar    
  17 C17            5.9138     1.0631    -1.8581 C.ar    
  18 N18            3.5644     3.3769     0.8178 N.pl3   
  19 O19            4.2614     3.4879     1.8105 O.2     
  20 O20            2.7781     4.2594     0.5240 O.2     
  21 C21            6.5490     1.1259    -0.6172 C.ar    
  22 C22            6.2010     0.0120    -2.7299 C.ar    
  23 C23            7.1140    -0.9550    -2.3626 C.ar    
  24 C24            7.7443    -0.8841    -1.1330 C.ar    
  25 C25            7.4600     0.1526    -0.2620 C.ar    
  26 Cl26           0.3423     6.3373    -2.5856 Cl      
  27 H27           -0.9591     1.9123     0.0567 H       
  28 H28           -0.9276    -0.5476     0.1618 H       
  29 H29            1.2201    -1.7518     0.1782 H       
  30 H30            3.3365    -0.4959     0.0936 H       
  31 H31            1.1573     3.1684    -0.0232 H       
  32 H32            4.4830     1.5522     0.3430 H       
  33 H33            5.4776     2.5427    -4.2153 H       
  34 H34            1.6712     4.4063    -0.9795 H       
  35 H35            1.9320     6.0147    -4.9217 H       
  36 H36            3.8377     4.5556    -5.4258 H       
  37 H37            6.3282     1.9348     0.0635 H       
  38 H38            5.7095    -0.0447    -3.6899 H       
  39 H39            7.3370    -1.7692    -3.0362 H       
  40 H40            8.4579    -1.6437    -0.8500 H       
  41 H41            7.9526     0.2002     0.6980 H       
@<TRIPOS>BOND
   1    1    2 ar
   2    1    6 ar
   3    1   27 1
   4    2    3 ar
   5    2   28 1
   6    3    4 ar
   7    3   29 1
   8    4    5 ar
   9    4   30 1
  10    5    6 ar
  11    5    7 1
  12    6   31 1
  13    7    8 1
  14    7   18 1
  15    7   32 1
  16    8    9 1
  17    8   11 2
  18    9   12 ar
  19    9   16 ar
  20   10   11 1
  21   10   16 1
  22   10   33 1
  23   11   17 1
  24   12   13 ar
  25   12   34 1
  26   13   14 ar
  27   13   26 1
  28   14   15 ar
  29   14   35 1
  30   15   16 ar
  31   15   36 1
  32   17   22 ar
  33   17   21 ar
  34   18   19 2
  35   18   20 2
  36   21   25 ar
  37   21   37 1
  38   22   23 ar
  39   22   38 1
  40   23   24 ar
  41   23   39 1
  42   24   25 ar
  43   24   40 1
  44   25   41 1

#	End of record

