#	Name: ASD01916244
#	Creating user name:	WinNT
#	Creation time:	15. 06. 2019 20:07

#	Modifying user name:	WinNT
#	Modification time:	15. 06. 2019 20:07

#	Program:	/corina/corina34_cracker 3.40 0067  02.08.2006

@<TRIPOS>MOLECULE
ASD01916244
  34   36    0    0    0
SMALL
NO_CHARGES


@<TRIPOS>ATOM
   1 C1             0.4262     1.2264    -0.4141 C.ar    
   2 C2             0.6390    -0.1379    -0.3267 C.ar    
   3 C3             1.7848    -0.6251     0.2715 C.ar    
   4 C4             2.7314     0.2606     0.7890 C.ar    
   5 C5             2.5151     1.6362     0.6994 C.ar    
   6 C6             1.3629     2.1143     0.0982 C.ar    
   7 O7             1.1491     3.4533     0.0087 O.3     
   8 C8             1.6339     4.1055    -1.0806 C.ar    
   9 C9             1.5439     5.4900    -1.1820 C.ar    
  10 N10            2.0281     6.0877    -2.2582 N.ar    
  11 C11            2.5893     5.3895    -3.2249 C.ar    
  12 N12            2.6930     4.0770    -3.1660 N.ar    
  13 C13            2.2382     3.4063    -2.1204 C.ar    
  14 C14            3.9585    -0.2570     1.4303 C.2     
  15 N15            4.1649    -1.5861     1.5160 N.am    
  16 O16            4.7815     0.5162     1.8803 O.2     
  17 C17            5.3180    -2.0724     2.1185 C.2     
  18 S18            6.5546    -1.1028     2.7920 S.3     
  19 C19            7.4557    -2.5475     3.2442 C.2     
  20 C20            6.7536    -3.6126     2.8526 C.2     
  21 N21            5.6106    -3.3278     2.2571 N.2     
  22 Cl22          -0.5375    -1.2404    -0.9700 Cl      
  23 C23            7.2248    -5.0263     3.0772 C.3     
  24 F24            6.7359    -5.8486     2.0565 F       
  25 F25            8.6235    -5.0580     3.0720 F       
  26 H26           -0.4694     1.6021    -0.8865 H       
  27 H27            1.9480    -1.6905     0.3390 H       
  28 H28            3.2441     2.3261     1.0981 H       
  29 H29            1.0850     6.0684    -0.3938 H       
  30 H30            2.9749     5.9078    -4.0904 H       
  31 H31            2.3266     2.3307    -2.0788 H       
  32 H32            3.5081    -2.2030     1.1568 H       
  33 H33            8.4099    -2.5676     3.7497 H       
  34 H34            6.8569    -5.3834     4.0391 H       
@<TRIPOS>BOND
   1    1    2 ar
   2    1    6 ar
   3    1   26 1
   4    2    3 ar
   5    2   22 1
   6    3    4 ar
   7    3   27 1
   8    4    5 ar
   9    4   14 1
  10    5    6 ar
  11    5   28 1
  12    6    7 1
  13    7    8 1
  14    8    9 ar
  15    8   13 ar
  16    9   10 ar
  17    9   29 1
  18   10   11 ar
  19   11   12 ar
  20   11   30 1
  21   12   13 ar
  22   13   31 1
  23   14   15 am
  24   14   16 2
  25   15   17 1
  26   15   32 1
  27   17   18 1
  28   17   21 2
  29   18   19 1
  30   19   20 2
  31   19   33 1
  32   20   21 1
  33   20   23 1
  34   23   24 1
  35   23   25 1
  36   23   34 1

#	End of record

