#	Name: ASD09740406
#	Creating user name:	WinNT
#	Creation time:	15. 06. 2019 21:23

#	Modifying user name:	WinNT
#	Modification time:	15. 06. 2019 21:23

#	Program:	/corina/corina34_cracker 3.40 0067  02.08.2006

@<TRIPOS>MOLECULE
ASD09740406
  66   70    0    0    0
SMALL
NO_CHARGES


@<TRIPOS>ATOM
   1 N1            -0.0944     1.3695     0.7156 N.2     
   2 C2            -0.1041     0.0822     0.9572 C.2     
   3 C3             1.0399     1.9948     0.8634 C.2     
   4 S4             2.2745     0.8454     1.3709 S.3     
   5 C5             1.0789    -0.4492     1.3355 C.2     
   6 C6             1.2560     3.4392     0.6397 C.ar    
   7 C7             0.1961     4.2477     0.2375 C.ar    
   8 C8             2.5238     3.9955     0.8375 C.ar    
   9 C9             2.7308     5.3419     0.6308 C.ar    
  10 C10            1.6829     6.1562     0.2248 C.ar    
  11 C11            0.4059     5.6101     0.0279 C.ar    
  12 O12            1.8923     7.4813     0.0232 O.3     
  13 C13            3.2384     7.9489     0.1299 C.3     
  14 C14            3.4015     9.2265    -0.6960 C.3     
  15 C15            3.5608     8.2448     1.5960 C.3     
  16 C16           -0.6773     6.4479    -0.3910 C.1     
  17 N17           -1.5366     7.1125    -0.7233 N.1     
  18 C18            1.3271    -1.8687     1.6634 C.ar    
  19 C19            2.3999    -2.5459     1.0753 C.ar    
  20 C20            2.6264    -3.8705     1.3859 C.ar    
  21 C21            1.7907    -4.5246     2.2783 C.ar    
  22 C22            0.7283    -3.8601     2.8616 C.ar    
  23 C23            0.4951    -2.5331     2.5644 C.ar    
  24 C24            3.4401    -2.0651     0.0866 C.3     
  25 C25            4.5785    -3.1047     0.1612 C.3     
  26 C26            3.8357    -4.3748     0.6272 C.3     
  27 N27            4.6933    -5.1707     1.5089 N.am    
  28 S28            4.6111    -6.8243     1.4720 S.o2    
  29 O29            5.5457    -7.2436     2.4568 O.2     
  30 O30            3.2257    -7.1094     1.6082 O.2     
  31 C31            5.1925    -7.2694    -0.1877 C.3     
  32 C32            5.1629    -8.7908    -0.3474 C.3     
  33 N33            5.6336    -9.1513    -1.6915 N.3     
  34 C34            5.8457   -10.6063    -1.8046 C.3     
  35 C35            5.2112   -10.5342    -3.2005 C.3     
  36 C36            4.5021    -9.3001    -2.6255 C.3     
  37 H37           -0.9989    -0.5148     0.8606 H       
  38 H38           -0.7848     3.8211     0.0881 H       
  39 H39            3.3435     3.3674     1.1538 H       
  40 H40            3.7122     5.7652     0.7857 H       
  41 H41            3.9193     7.1847    -0.2447 H       
  42 H42            2.7206     9.9908    -0.3214 H       
  43 H43            4.4283     9.5832    -0.6146 H       
  44 H44            3.1719     9.0157    -1.7405 H       
  45 H45            4.5875     8.6015     1.6774 H       
  46 H46            2.8799     9.0091     1.9707 H       
  47 H47            3.4446     7.3347     2.1844 H       
  48 H48            1.9711    -5.5618     2.5194 H       
  49 H49            0.0830    -4.3788     3.5551 H       
  50 H50           -0.3349    -2.0135     3.0199 H       
  51 H51            3.0207    -2.0349    -0.9191 H       
  52 H52            3.8080    -1.0800     0.3736 H       
  53 H53            5.0291    -3.2572    -0.8196 H       
  54 H54            5.3299    -2.8050     0.8918 H       
  55 H55            3.5227    -4.9670    -0.2327 H       
  56 H56            5.3093    -4.7291     2.1142 H       
  57 H57            4.5431    -6.8130    -0.9347 H       
  58 H58            6.2122    -6.9095    -0.3242 H       
  59 H59            5.8123    -9.2472     0.3996 H       
  60 H60            4.1431    -9.1507    -0.2110 H       
  61 H61            6.8976   -10.8919    -1.8199 H       
  62 H62            5.2610   -11.1871    -1.0913 H       
  63 H63            5.9171   -10.3110    -4.0006 H       
  64 H64            4.5444   -11.3650    -3.4312 H       
  65 H65            3.5587    -9.5323    -2.1314 H       
  66 H66            4.4151    -8.4786    -3.3367 H       
@<TRIPOS>BOND
   1    1    2 1
   2    1    3 2
   3    2    5 2
   4    2   37 1
   5    3    4 1
   6    3    6 1
   7    4    5 1
   8    5   18 1
   9    6    7 ar
  10    6    8 ar
  11    7   11 ar
  12    7   38 1
  13    8    9 ar
  14    8   39 1
  15    9   10 ar
  16    9   40 1
  17   10   11 ar
  18   10   12 1
  19   11   16 1
  20   12   13 1
  21   13   14 1
  22   13   15 1
  23   13   41 1
  24   14   42 1
  25   14   43 1
  26   14   44 1
  27   15   45 1
  28   15   46 1
  29   15   47 1
  30   16   17 3
  31   18   19 ar
  32   18   23 ar
  33   19   20 ar
  34   19   24 1
  35   20   21 ar
  36   20   26 1
  37   21   22 ar
  38   21   48 1
  39   22   23 ar
  40   22   49 1
  41   23   50 1
  42   24   25 1
  43   24   51 1
  44   24   52 1
  45   25   26 1
  46   25   53 1
  47   25   54 1
  48   26   27 1
  49   26   55 1
  50   27   28 am
  51   27   56 1
  52   28   29 2
  53   28   30 2
  54   28   31 1
  55   31   32 1
  56   31   57 1
  57   31   58 1
  58   32   33 1
  59   32   59 1
  60   32   60 1
  61   33   34 1
  62   33   36 1
  63   34   35 1
  64   34   61 1
  65   34   62 1
  66   35   36 1
  67   35   63 1
  68   35   64 1
  69   36   65 1
  70   36   66 1

#	End of record

