#	Name: ASD01811681
#	Creating user name:	WinNT
#	Creation time:	15. 06. 2019 19:27

#	Modifying user name:	WinNT
#	Modification time:	15. 06. 2019 19:27

#	Program:	/corina/corina34_cracker 3.40 0067  02.08.2006

@<TRIPOS>MOLECULE
ASD01811681
  58   63    0    0    0
SMALL
NO_CHARGES


@<TRIPOS>ATOM
   1 C1             0.6487     1.4579     0.1303 C.ar    
   2 C2             0.3968     0.0987     0.0484 C.ar    
   3 C3             1.4182    -0.7806    -0.2652 C.ar    
   4 C4             2.6941    -0.3112    -0.4990 C.ar    
   5 C5             2.9558     1.0580    -0.4187 C.ar    
   6 C6             1.9175     1.9366    -0.1010 C.ar    
   7 C7            -0.9936    -0.4244     0.3020 C.3     
   8 C8            -1.6277    -0.1161     1.6598 C.3     
   9 C9            -2.1261     0.5994     0.4027 C.3     
  10 C10            1.1355    -2.2584    -0.3513 C.3     
  11 C11            1.2238    -2.8677     1.0242 C.ar    
  12 C12            0.0774    -3.0371     1.7787 C.ar    
  13 C13            0.1551    -3.5956     3.0395 C.ar    
  14 C14            1.3858    -3.9872     3.5492 C.ar    
  15 C15            2.5350    -3.8158     2.7892 C.ar    
  16 C16            2.4503    -3.2615     1.5270 C.ar    
  17 N17            1.4679    -4.5539     4.8287 N.pl3   
  18 N18            0.3946    -4.7838     5.6990 N.2     
  19 C19            0.8644    -5.3248     6.7941 C.2     
  20 C20            2.2506    -5.4572     6.6575 C.2     
  21 C21            2.5965    -4.9810     5.4390 C.2     
  22 C22            4.1875     1.8473    -0.6105 C.2     
  23 N23            3.9371     3.1547    -0.4236 N.am    
  24 C24            2.5170     3.3205    -0.0937 C.3     
  25 O25            5.2735     1.3818    -0.8960 O.2     
  26 C26            4.9200     4.2357    -0.5317 C.3     
  27 C27            5.5178     4.2648    -1.9492 C.3     
  28 C28            7.0340     4.0272    -1.7930 C.3     
  29 C29            7.1648     3.2854    -0.4396 C.3     
  30 C30            6.0938     3.9814     0.4365 C.3     
  31 O31            5.2816     5.5378    -2.5541 O.3     
  32 H32           -0.1514     2.1421     0.3712 H       
  33 H33            3.4885    -1.0009    -0.7431 H       
  34 H34           -1.2241    -1.3871    -0.1542 H       
  35 H35           -2.2756    -0.8759     2.0969 H       
  36 H36           -1.0391     0.4651     2.3698 H       
  37 H37           -1.8656     1.6513     0.2855 H       
  38 H38           -3.1020     0.3103     0.0126 H       
  39 H39            0.1347    -2.4140    -0.7541 H       
  40 H40            1.8680    -2.7309    -1.0057 H       
  41 H41           -0.8795    -2.7320     1.3818 H       
  42 H42           -0.7405    -3.7274     3.6285 H       
  43 H43            3.4938    -4.1191     3.1832 H       
  44 H44            3.3439    -3.1279     0.9354 H       
  45 H45            0.2824    -5.6183     7.6553 H       
  46 H46            2.9250    -5.8703     7.3930 H       
  47 H47            3.5953    -4.9434     5.0298 H       
  48 H48            2.0288     3.9441    -0.8427 H       
  49 H49            2.4119     3.7692     0.8941 H       
  50 H50            4.4497     5.1925    -0.3050 H       
  51 H51            5.0767     3.4746    -2.5568 H       
  52 H52            7.4085     3.4057    -2.6064 H       
  53 H53            7.5677     4.9771    -1.7606 H       
  54 H54            6.9390     2.2255    -0.5566 H       
  55 H55            8.1599     3.4251    -0.0171 H       
  56 H56            6.4756     4.9239     0.8290 H       
  57 H57            5.7821     3.3265     1.2502 H       
  58 H58            5.6351     5.6190    -3.4504 H       
@<TRIPOS>BOND
   1    1    2 ar
   2    1    6 ar
   3    1   32 1
   4    2    3 ar
   5    2    7 1
   6    3    4 ar
   7    3   10 1
   8    4    5 ar
   9    4   33 1
  10    5    6 ar
  11    5   22 1
  12    6   24 1
  13    7    8 1
  14    7    9 1
  15    7   34 1
  16    8    9 1
  17    8   35 1
  18    8   36 1
  19    9   37 1
  20    9   38 1
  21   10   11 1
  22   10   39 1
  23   10   40 1
  24   11   12 ar
  25   11   16 ar
  26   12   13 ar
  27   12   41 1
  28   13   14 ar
  29   13   42 1
  30   14   15 ar
  31   14   17 1
  32   15   16 ar
  33   15   43 1
  34   16   44 1
  35   17   18 1
  36   17   21 1
  37   18   19 2
  38   19   20 1
  39   19   45 1
  40   20   21 2
  41   20   46 1
  42   21   47 1
  43   22   23 am
  44   22   25 2
  45   23   24 1
  46   23   26 1
  47   24   48 1
  48   24   49 1
  49   26   27 1
  50   26   30 1
  51   26   50 1
  52   27   28 1
  53   27   31 1
  54   27   51 1
  55   28   29 1
  56   28   52 1
  57   28   53 1
  58   29   30 1
  59   29   54 1
  60   29   55 1
  61   30   56 1
  62   30   57 1
  63   31   58 1

#	End of record

