#	Name: ASD01478020
#	Creating user name:	WinNT
#	Creation time:	15. 06. 2019 19:21

#	Modifying user name:	WinNT
#	Modification time:	15. 06. 2019 19:21

#	Program:	/corina/corina34_cracker 3.40 0067  02.08.2006

@<TRIPOS>MOLECULE
ASD01478020
  80   83    0    0    0
SMALL
NO_CHARGES


@<TRIPOS>ATOM
   1 C1             1.5822     1.3620     1.9364 C.3     
   2 C2             3.0013     2.1570     0.1898 C.2     
   3 O3             2.7948     2.0407     1.5152 O.3     
   4 N4             4.1073     2.7762    -0.2681 N.am    
   5 O5             2.1904     1.7038    -0.5934 O.2     
   6 C6             3.6005     4.1404    -2.2337 C.3     
   7 C7             4.3320     2.9027    -1.7102 C.3     
   8 C8             5.8310     3.0430    -1.9825 C.3     
   9 C9             6.0767     3.0499    -3.4926 C.3     
  10 N10            7.5183     3.0363    -3.7530 N.am    
  11 S11            8.2966     1.6006    -4.0275 S.o2    
  12 C12            8.2453     1.3032    -5.7635 C.ar    
  13 C13            9.2615     1.7736    -6.5746 C.ar    
  14 C14            9.2236     1.5417    -7.9359 C.ar    
  15 C15            8.1648     0.8362    -8.4890 C.ar    
  16 C16            7.1464     0.3654    -7.6730 C.ar    
  17 C17            7.1918     0.5950    -6.3115 C.ar    
  18 O18            9.6620     1.8148    -3.6973 O.2     
  19 O19            7.5001     0.5905    -3.4237 O.2     
  20 C20            8.2714     4.2928    -3.7704 C.3     
  21 C21            7.7777     5.1673    -4.9248 C.3     
  22 C22            8.4563     6.5367    -4.8535 C.3     
  23 C23            8.1218     4.4963    -6.2561 C.3     
  24 O24            6.3053     4.2668    -1.4172 O.3     
  25 C25            1.8457    -0.1498     2.0897 C.3     
  26 O26            2.7881    -0.4276     3.1194 O.3     
  27 C27            2.5249     0.1317     4.4205 C.3     
  28 C28            2.3957     1.6222     4.2272 C.3     
  29 C29            1.1578     1.8534     3.3090 C.3     
  30 C30            2.1098     2.5128     5.3851 C.2     
  31 N31            1.3651     3.5598     4.9288 N.am    
  32 C32            0.9944     3.3587     3.5067 C.3     
  33 O33            2.4738     2.3384     6.5287 O.2     
  34 O34            8.1250     0.6072    -9.8280 O.3     
  35 C35            7.0049    -0.1260   -10.3278 C.3     
  36 C36            2.1140     3.9490    -2.0771 C.ar    
  37 C37            1.4837     4.3529    -0.9149 C.ar    
  38 C38            0.1201     4.1773    -0.7712 C.ar    
  39 C39           -0.6133     3.5983    -1.7899 C.ar    
  40 C40            0.0167     3.1953    -2.9524 C.ar    
  41 C41            1.3797     3.3748    -3.0978 C.ar    
  42 H42            0.7861     1.5327     1.2118 H       
  43 H43            4.7546     3.1380     0.3572 H       
  44 H44            3.9159     5.0159    -1.6662 H       
  45 H45            3.8392     4.2850    -3.2873 H       
  46 H46            3.9523     2.0151    -2.2164 H       
  47 H47            6.3622     2.2047    -1.5318 H       
  48 H48            5.6185     2.1675    -3.9393 H       
  49 H49            5.6372     3.9473    -3.9281 H       
  50 H50           10.0853     2.3230    -6.1436 H       
  51 H51           10.0174     1.9096    -8.5691 H       
  52 H52            6.3211    -0.1841    -8.1012 H       
  53 H53            6.3993     0.2286    -5.6758 H       
  54 H54            8.1229     4.8185    -2.8271 H       
  55 H55            9.3318     4.0790    -3.9042 H       
  56 H56            6.6976     5.2926    -4.8495 H       
  57 H57            9.5364     6.4114    -4.9287 H       
  58 H58            8.1046     7.1597    -5.6759 H       
  59 H59            8.2112     7.0147    -3.9050 H       
  60 H60            7.6440     3.5178    -6.3039 H       
  61 H61            7.7640     5.1160    -7.0784 H       
  62 H62            9.2024     4.3773    -6.3344 H       
  63 H63            5.9411     5.0597    -1.8339 H       
  64 H64            0.9066    -0.6508     2.3247 H       
  65 H65            2.2269    -0.5402     1.1462 H       
  66 H66            1.5963    -0.2750     4.8212 H       
  67 H67            3.3521    -0.0873     5.0957 H       
  68 H68            3.2858     1.9941     3.7197 H       
  69 H69            0.2881     1.3037     3.6690 H       
  70 H70            1.1123     4.3303     5.4611 H       
  71 H71            1.6710     3.9080     2.8520 H       
  72 H72           -0.0388     3.6593     3.3327 H       
  73 H73            7.0968    -0.2381   -11.4081 H       
  74 H74            6.9778    -1.1107    -9.8613 H       
  75 H75            6.0857     0.4117   -10.0952 H       
  76 H76            2.0568     4.8052    -0.1190 H       
  77 H77           -0.3721     4.4922     0.1371 H       
  78 H78           -1.6786     3.4605    -1.6773 H       
  79 H79           -0.5562     2.7426    -3.7481 H       
  80 H80            1.8713     3.0633    -4.0076 H       
@<TRIPOS>BOND
   1    1   25 1
   2    1    3 1
   3    1   29 1
   4    1   42 1
   5    2    3 1
   6    2    4 am
   7    2    5 2
   8    4    7 1
   9    4   43 1
  10    6    7 1
  11    6   36 1
  12    6   44 1
  13    6   45 1
  14    7    8 1
  15    7   46 1
  16    8    9 1
  17    8   24 1
  18    8   47 1
  19    9   10 1
  20    9   48 1
  21    9   49 1
  22   10   11 am
  23   10   20 1
  24   11   12 1
  25   11   18 2
  26   11   19 2
  27   12   13 ar
  28   12   17 ar
  29   13   14 ar
  30   13   50 1
  31   14   15 ar
  32   14   51 1
  33   15   16 ar
  34   15   34 1
  35   16   17 ar
  36   16   52 1
  37   17   53 1
  38   20   21 1
  39   20   54 1
  40   20   55 1
  41   21   22 1
  42   21   23 1
  43   21   56 1
  44   22   57 1
  45   22   58 1
  46   22   59 1
  47   23   60 1
  48   23   61 1
  49   23   62 1
  50   24   63 1
  51   25   26 1
  52   25   64 1
  53   25   65 1
  54   26   27 1
  55   27   28 1
  56   27   66 1
  57   27   67 1
  58   28   29 1
  59   28   30 1
  60   28   68 1
  61   29   32 1
  62   29   69 1
  63   30   31 am
  64   30   33 2
  65   31   32 1
  66   31   70 1
  67   32   71 1
  68   32   72 1
  69   34   35 1
  70   35   73 1
  71   35   74 1
  72   35   75 1
  73   36   37 ar
  74   36   41 ar
  75   37   38 ar
  76   37   76 1
  77   38   39 ar
  78   38   77 1
  79   39   40 ar
  80   39   78 1
  81   40   41 ar
  82   40   79 1
  83   41   80 1

#	End of record

