#	Name: ASD08710123
#	Creating user name:	WinNT
#	Creation time:	15. 06. 2019 21:19

#	Modifying user name:	WinNT
#	Modification time:	15. 06. 2019 21:19

#	Program:	/corina/corina34_cracker 3.40 0067  02.08.2006

@<TRIPOS>MOLECULE
ASD08710123
  50   51    0    0    0
SMALL
NO_CHARGES


@<TRIPOS>ATOM
   1 N1             0.1915     1.7791     0.0346 N.am    
   2 C2            -0.0661     0.3372    -0.0847 C.3     
   3 C3             0.6535    -0.1876    -1.3333 C.3     
   4 N4             2.0454     0.2833    -1.3058 N.am    
   5 C5             2.3031     1.7253    -1.1864 C.3     
   6 C6             1.5834     2.2500     0.0622 C.3     
   7 C7            -0.8304     2.6545     0.1118 C.2     
   8 O8            -1.9746     2.2650    -0.0124 O.2     
   9 O9            -0.5833     3.9604     0.3265 O.3     
  10 C10           -1.5707     0.0938    -0.2189 C.3     
  11 S11            3.3010    -0.7917    -1.4069 S.o2    
  12 O12            4.4649    -0.0894    -0.9929 O.2     
  13 O13            2.8545    -1.9897    -0.7867 O.2     
  14 C14            3.5282    -1.1694    -3.1129 C.ar    
  15 C15            3.9776    -0.1928    -3.9837 C.ar    
  16 C16            4.1557    -0.4898    -5.3227 C.ar    
  17 C17            3.8847    -1.7622    -5.7903 C.ar    
  18 C18            3.4353    -2.7374    -4.9199 C.ar    
  19 C19            3.2630    -2.4426    -3.5801 C.ar    
  20 C20            4.0787    -2.0859    -7.2493 C.3     
  21 F21            5.3852    -2.5415    -7.4561 F       
  22 F22            3.1720    -3.0807    -7.6308 F       
  23 F23            3.8590    -0.9361    -8.0153 F       
  24 Br24           4.3476     1.5477    -3.3436 Br      
  25 C25           -1.7321     4.8456     0.3981 C.3     
  26 C26           -2.6442     4.4057     1.5450 C.3     
  27 C27           -1.2570     6.2788     0.6451 C.3     
  28 C28           -2.5056     4.7849    -0.9206 C.3     
  29 H29            0.3127    -0.1765     0.7988 H       
  30 H30            0.6360    -1.2774    -1.3348 H       
  31 H31            0.1573     0.1899    -2.2274 H       
  32 H32            3.3750     1.8986    -1.0908 H       
  33 H33            1.9243     2.2389    -2.0700 H       
  34 H34            1.6010     3.3398     0.0636 H       
  35 H35            2.0797     1.8725     0.9562 H       
  36 H36           -1.9533     0.6475    -1.0763 H       
  37 H37           -1.7552    -0.9709    -0.3623 H       
  38 H38           -2.0755     0.4314     0.6862 H       
  39 H39            4.5062     0.2723    -6.0030 H       
  40 H40            3.2230    -3.7311    -5.2857 H       
  41 H41            2.9164    -3.2062    -2.8995 H       
  42 H42           -2.0931     4.4490     2.4845 H       
  43 H43           -3.5066     5.0702     1.5988 H       
  44 H44           -2.9826     3.3847     1.3690 H       
  45 H45           -0.6073     6.5922    -0.1720 H       
  46 H46           -2.1194     6.9433     0.6989 H       
  47 H47           -0.7060     6.3220     1.5846 H       
  48 H48           -2.8441     3.7638    -1.0966 H       
  49 H49           -3.3680     5.4493    -0.8669 H       
  50 H50           -1.8558     5.0982    -1.7377 H       
@<TRIPOS>BOND
   1    1    2 1
   2    1    6 1
   3    1    7 am
   4    2    3 1
   5    2   10 1
   6    2   29 1
   7    3    4 1
   8    3   30 1
   9    3   31 1
  10    4    5 1
  11    4   11 am
  12    5    6 1
  13    5   32 1
  14    5   33 1
  15    6   34 1
  16    6   35 1
  17    7    8 2
  18    7    9 1
  19    9   25 1
  20   10   36 1
  21   10   37 1
  22   10   38 1
  23   11   12 2
  24   11   13 2
  25   11   14 1
  26   14   15 ar
  27   14   19 ar
  28   15   16 ar
  29   15   24 1
  30   16   17 ar
  31   16   39 1
  32   17   18 ar
  33   17   20 1
  34   18   19 ar
  35   18   40 1
  36   19   41 1
  37   20   21 1
  38   20   22 1
  39   20   23 1
  40   25   26 1
  41   25   27 1
  42   25   28 1
  43   26   42 1
  44   26   43 1
  45   26   44 1
  46   27   45 1
  47   27   46 1
  48   27   47 1
  49   28   48 1
  50   28   49 1
  51   28   50 1

#	End of record

