#	Name: ASD01915468
#	Creating user name:	WinNT
#	Creation time:	15. 06. 2019 20:05

#	Modifying user name:	WinNT
#	Modification time:	15. 06. 2019 20:05

#	Program:	/corina/corina34_cracker 3.40 0067  02.08.2006

@<TRIPOS>MOLECULE
ASD01915468
  46   49    0    0    0
SMALL
NO_CHARGES


@<TRIPOS>ATOM
   1 C1            -0.0167     1.3780     0.0096 C.ar    
   2 C2             0.0021    -0.0041     0.0020 C.ar    
   3 C3             1.2080    -0.6794    -0.0131 C.ar    
   4 C4             2.3969     0.0266    -0.0202 C.ar    
   5 C5             2.3806     1.4083    -0.0122 C.ar    
   6 C6             1.1730     2.0859     0.0021 C.ar    
   7 F7             1.1559     3.4368     0.0095 F       
   8 C8             3.7109    -0.7111    -0.0362 C.3     
   9 O9             4.1138    -0.9370    -1.3885 O.3     
  10 C10            5.2835    -1.5937    -1.5803 C.ar    
  11 C11            5.7235    -1.8404    -2.8769 C.ar    
  12 N12            5.9898    -1.9843    -0.5297 N.ar    
  13 C13            7.1312    -2.6247    -0.6645 C.ar    
  14 C14            7.6319    -2.9133    -1.9365 C.ar    
  15 C15            6.9166    -2.5110    -3.0676 C.ar    
  16 C16            7.9198    -3.0575     0.5445 C.3     
  17 C17            8.6284    -4.3790     0.2577 C.3     
  18 N18            9.3880    -4.3080    -0.9877 N.am    
  19 C19            8.9128    -3.6354    -2.0556 C.2     
  20 O20            9.5315    -3.6244    -3.1022 O.2     
  21 C21           10.6878    -4.9778    -1.0781 C.3     
  22 C22           10.4923    -6.3896    -1.5676 C.ar    
  23 C23           10.8196    -6.7215    -2.8686 C.ar    
  24 C24           10.6407    -8.0165    -3.3186 C.ar    
  25 C25           10.1342    -8.9813    -2.4683 C.ar    
  26 C26            9.8058    -8.6519    -1.1656 C.ar    
  27 C27            9.9902    -7.3557    -0.7124 C.ar    
  28 Cl28           9.1692    -9.8633    -0.0974 Cl      
  29 F29            9.6700    -7.0321     0.5596 F       
  30 H30           -0.9591     1.9054     0.0169 H       
  31 H31           -0.9259    -0.5565     0.0083 H       
  32 H32            1.2217    -1.7592    -0.0191 H       
  33 H33            3.3093     1.9595    -0.0170 H       
  34 H34            4.4681    -0.1157     0.4739 H       
  35 H35            3.5967    -1.6678     0.4735 H       
  36 H36            5.1395    -1.5121    -3.7240 H       
  37 H37            7.2833    -2.7216    -4.0614 H       
  38 H38            8.6602    -2.2947     0.7858 H       
  39 H39            7.2446    -3.1850     1.3906 H       
  40 H40            9.3081    -4.6061     1.0789 H       
  41 H41            7.8860    -5.1732     0.1790 H       
  42 H42           11.3276    -4.4368    -1.7752 H       
  43 H43           11.1563    -4.9960    -0.0941 H       
  44 H44           11.2151    -5.9687    -3.5343 H       
  45 H45           10.8966    -8.2744    -4.3357 H       
  46 H46            9.9946    -9.9924    -2.8211 H       
@<TRIPOS>BOND
   1    1    2 ar
   2    1    6 ar
   3    1   30 1
   4    2    3 ar
   5    2   31 1
   6    3    4 ar
   7    3   32 1
   8    4    5 ar
   9    4    8 1
  10    5    6 ar
  11    5   33 1
  12    6    7 1
  13    8    9 1
  14    8   34 1
  15    8   35 1
  16    9   10 1
  17   10   11 ar
  18   10   12 ar
  19   11   15 ar
  20   11   36 1
  21   12   13 ar
  22   13   14 ar
  23   13   16 1
  24   14   15 ar
  25   14   19 1
  26   15   37 1
  27   16   17 1
  28   16   38 1
  29   16   39 1
  30   17   18 1
  31   17   40 1
  32   17   41 1
  33   18   19 am
  34   18   21 1
  35   19   20 2
  36   21   22 1
  37   21   42 1
  38   21   43 1
  39   22   23 ar
  40   22   27 ar
  41   23   24 ar
  42   23   44 1
  43   24   25 ar
  44   24   45 1
  45   25   26 ar
  46   25   46 1
  47   26   27 ar
  48   26   28 1
  49   27   29 1

#	End of record

