#	Name: ASD02198522
#	Creating user name:	WinNT
#	Creation time:	15. 06. 2019 20:19

#	Modifying user name:	WinNT
#	Modification time:	15. 06. 2019 20:19

#	Program:	/corina/corina34_cracker 3.40 0067  02.08.2006

@<TRIPOS>MOLECULE
ASD02198522
  48   51    0    0    0
SMALL
NO_CHARGES


@<TRIPOS>ATOM
   1 C1             0.2382     1.6299     0.2892 C.2     
   2 C2             0.4193     0.2831     0.2163 C.2     
   3 N3            -0.6377    -0.5506     0.0769 N.pl3   
   4 N4            -1.8509    -0.1433     0.0055 N.2     
   5 C5            -2.1666     1.1336     0.0630 C.2     
   6 C6            -1.0911     2.1229     0.2195 C.2     
   7 C7            -0.3938    -1.9260     0.0067 C.ar    
   8 C8             1.1475    -3.7577    -0.1359 C.ar    
   9 C9             0.0887    -4.6471    -0.1320 C.ar    
  10 C10           -1.2113    -4.1794    -0.0647 C.ar    
  11 C11           -1.4556    -2.8222     0.0046 C.ar    
  12 C12           -3.5772     1.5638    -0.0228 C.2     
  13 N13           -4.2475     2.3348     0.8846 N.pl3   
  14 N14           -5.5570     2.5026     0.4173 N.2     
  15 C15           -5.6829     1.8661    -0.7198 C.2     
  16 C16           -4.4629     1.2681    -1.0357 C.2     
  17 C17           -3.7197     2.8625     2.0699 C.ar    
  18 C18           -2.8990     2.0824     2.8739 C.ar    
  19 O19           -1.3304     3.3203     0.2782 O.2     
  20 C20           -4.0113     4.1686     2.4406 C.ar    
  21 C21           -3.4888     4.6861     3.6097 C.ar    
  22 C22           -2.6762     3.9050     4.4108 C.ar    
  23 C23           -2.3797     2.6057     4.0418 C.ar    
  24 C24            0.9102    -2.3989    -0.0668 C.ar    
  25 O25            1.2947     2.4746     0.4297 O.3     
  26 C26            2.5938     1.8831     0.4965 C.3     
  27 C27            3.6470     2.9818     0.6533 C.3     
  28 C28            2.5621    -4.2720    -0.2088 C.3     
  29 F29            2.5479    -5.6698    -0.2639 F       
  30 F30            3.1836    -3.7664    -1.3557 F       
  31 F31            3.2682    -3.8571     0.9255 F       
  32 H32            1.4177    -0.1250     0.2699 H       
  33 H33            0.2772    -5.7094    -0.1816 H       
  34 H34           -2.0359    -4.8767    -0.0622 H       
  35 H35           -2.4709    -2.4577     0.0575 H       
  36 H36           -6.5815     1.8160    -1.3168 H       
  37 H37           -4.2526     0.6740    -1.9128 H       
  38 H38           -2.6673     1.0675     2.5864 H       
  39 H39           -4.6456     4.7792     1.8152 H       
  40 H40           -3.7150     5.7019     3.8984 H       
  41 H41           -2.2686     4.3121     5.3244 H       
  42 H42           -1.7450     1.9981     4.6697 H       
  43 H43            1.7376    -1.7047    -0.0702 H       
  44 H44            2.6424     1.2086     1.3514 H       
  45 H45            2.7859     1.3237    -0.4190 H       
  46 H46            3.5985     3.6563    -0.2015 H       
  47 H47            3.4550     3.5412     1.5689 H       
  48 H48            4.6379     2.5306     0.7043 H       
@<TRIPOS>BOND
   1    1    2 2
   2    1   25 1
   3    1    6 1
   4    2    3 1
   5    2   32 1
   6    3    4 1
   7    3    7 1
   8    4    5 2
   9    5    6 1
  10    5   12 1
  11    6   19 2
  12    7   24 ar
  13    7   11 ar
  14    8    9 ar
  15    8   28 1
  16    8   24 ar
  17    9   10 ar
  18    9   33 1
  19   10   11 ar
  20   10   34 1
  21   11   35 1
  22   12   13 1
  23   12   16 2
  24   13   14 1
  25   13   17 1
  26   14   15 2
  27   15   16 1
  28   15   36 1
  29   16   37 1
  30   17   20 ar
  31   17   18 ar
  32   18   23 ar
  33   18   38 1
  34   20   21 ar
  35   20   39 1
  36   21   22 ar
  37   21   40 1
  38   22   23 ar
  39   22   41 1
  40   23   42 1
  41   24   43 1
  42   25   26 1
  43   26   27 1
  44   26   44 1
  45   26   45 1
  46   27   46 1
  47   27   47 1
  48   27   48 1
  49   28   29 1
  50   28   30 1
  51   28   31 1

#	End of record

