#	Name: ASD01880733
#	Creating user name:	WinNT
#	Creation time:	15. 06. 2019 19:41

#	Modifying user name:	WinNT
#	Modification time:	15. 06. 2019 19:41

#	Program:	/corina/corina34_cracker 3.40 0067  02.08.2006

@<TRIPOS>MOLECULE
ASD01880733
  55   58    0    0    0
SMALL
NO_CHARGES


@<TRIPOS>ATOM
   1 N1            -0.0048     1.2998    -0.2125 N.ar    
   2 C2             0.0333    -0.0169    -0.2355 C.ar    
   3 N3             1.1518    -0.6838    -0.0336 N.ar    
   4 C4             2.2923    -0.0491     0.2022 C.ar    
   5 C5             2.3001     1.3332     0.2352 C.ar    
   6 C6             1.0978     2.0075     0.0176 C.ar    
   7 C7             3.5745     2.0925     0.5004 C.3     
   8 O8             4.2990     2.2486    -0.7214 O.3     
   9 C9             5.4792     2.9154    -0.6570 C.ar    
  10 C10            6.2355     3.1029    -1.8099 C.ar    
  11 C11            7.4289     3.7779    -1.7435 C.ar    
  12 C12            7.8913     4.2797    -0.5223 C.ar    
  13 C13            7.1277     4.0889     0.6326 C.ar    
  14 C14            5.9287     3.4152     0.5594 C.ar    
  15 C15            8.4663     4.1457    -2.7750 C.3     
  16 N16            9.5185     4.8735    -2.0565 N.am    
  17 C17            9.1827     4.9485    -0.7572 C.2     
  18 O18            9.8498     5.4914     0.1021 O.2     
  19 Br19           3.8877    -1.0224     0.4904 Br      
  20 C20            7.6134     4.6233     1.9552 C.3     
  21 N21            1.0535     3.3921     0.0401 N.3     
  22 C22           -0.1979     3.8692     0.6451 C.3     
  23 C23           -0.1733     5.3975     0.7235 C.3     
  24 N24            0.0005     5.9520    -0.6263 N.3     
  25 C25            1.2519     5.4749    -1.2313 C.3     
  26 C26            1.2273     3.9466    -1.3097 C.3     
  27 C27           -0.0465     7.4200    -0.6025 C.3     
  28 C28           10.4699     6.8621    -3.1155 C.3     
  29 C29           10.7350     5.4269    -2.6564 C.3     
  30 H30           -0.8778    -0.5651    -0.4249 H       
  31 H31            3.3344     3.0743     0.9084 H       
  32 H32            4.1839     1.5407     1.2161 H       
  33 H33            5.8841     2.7176    -2.7557 H       
  34 H34            5.3389     3.2684     1.4521 H       
  35 H35            8.8777     3.2449    -3.2303 H       
  36 H36            8.0242     4.7844    -3.5397 H       
  37 H37            7.2403     5.6378     2.0963 H       
  38 H38            7.2479     3.9865     2.7608 H       
  39 H39            8.7033     4.6324     1.9653 H       
  40 H40           -1.0422     3.5500     0.0340 H       
  41 H41           -0.2977     3.4552     1.6485 H       
  42 H42           -1.1126     5.7552     1.1454 H       
  43 H43            0.6548     5.7159     1.3569 H       
  44 H44            1.3517     5.8889    -2.2347 H       
  45 H45            2.0962     5.7941    -0.6202 H       
  46 H46            2.1665     3.5889    -1.7316 H       
  47 H47            0.3992     3.6282    -1.9431 H       
  48 H48            0.7513     7.7988     0.0364 H       
  49 H49            0.0847     7.8042    -1.6140 H       
  50 H50           -1.0104     7.7464    -0.2121 H       
  51 H51            9.6673     6.8653    -3.8529 H       
  52 H52           10.1786     7.4697    -2.2587 H       
  53 H53           11.3751     7.2739    -3.5619 H       
  54 H54           11.5377     5.4237    -1.9190 H       
  55 H55           11.0264     4.8193    -3.5133 H       
@<TRIPOS>BOND
   1    1    2 ar
   2    1    6 ar
   3    2    3 ar
   4    2   30 1
   5    3    4 ar
   6    4    5 ar
   7    4   19 1
   8    5    6 ar
   9    5    7 1
  10    6   21 1
  11    7    8 1
  12    7   31 1
  13    7   32 1
  14    8    9 1
  15    9   10 ar
  16    9   14 ar
  17   10   11 ar
  18   10   33 1
  19   11   12 ar
  20   11   15 1
  21   12   13 ar
  22   12   17 1
  23   13   14 ar
  24   13   20 1
  25   14   34 1
  26   15   16 1
  27   15   35 1
  28   15   36 1
  29   16   17 am
  30   16   29 1
  31   17   18 2
  32   20   37 1
  33   20   38 1
  34   20   39 1
  35   21   22 1
  36   21   26 1
  37   22   23 1
  38   22   40 1
  39   22   41 1
  40   23   24 1
  41   23   42 1
  42   23   43 1
  43   24   25 1
  44   24   27 1
  45   25   26 1
  46   25   44 1
  47   25   45 1
  48   26   46 1
  49   26   47 1
  50   27   48 1
  51   27   49 1
  52   27   50 1
  53   28   29 1
  54   28   51 1
  55   28   52 1
  56   28   53 1
  57   29   54 1
  58   29   55 1

#	End of record

