#	Name: ASD04012016
#	Creating user name:	WinNT
#	Creation time:	15. 06. 2019 20:48

#	Modifying user name:	WinNT
#	Modification time:	15. 06. 2019 20:48

#	Program:	/corina/corina34_cracker 3.40 0067  02.08.2006

@<TRIPOS>MOLECULE
ASD04012016
  29   31    0    0    0
SMALL
NO_CHARGES


@<TRIPOS>ATOM
   1 N1            -0.0169     1.3947     0.0097 N.pl3   
   2 C2             1.2764     1.8375    -0.0003 C.2     
   3 N3             1.5521     3.1427     0.0041 N.2     
   4 C4             0.5865     4.0403     0.0182 C.2     
   5 C5            -0.7489     3.6345     0.0292 C.2     
   6 C6            -1.0423     2.2995     0.0193 C.2     
   7 N7             0.0021    -0.0041     0.0020 N.2     
   8 C8             1.2394    -0.4238    -0.0121 C.2     
   9 C9             2.0956     0.6929    -0.0142 C.2     
  10 O10           -2.3277     1.8796     0.0296 O.3     
  11 C11           -1.8555     4.6573     0.0462 C.3     
  12 C12           -2.1261     5.0810     1.4669 C.ar    
  13 Cl13           0.9771     5.7318     0.0235 Cl      
  14 C14           -1.4417     6.1517     2.0108 C.ar    
  15 C15           -1.6887     6.5412     3.3142 C.ar    
  16 C16           -2.6201     5.8605     4.0747 C.ar    
  17 C17           -3.3067     4.7879     3.5307 C.ar    
  18 C18           -3.0627     4.4023     2.2236 C.ar    
  19 F19           -4.2176     4.1215     4.2733 F       
  20 C20            3.5274     0.6694    -0.0287 C.1     
  21 N21            4.6632     0.6508    -0.0403 N.1     
  22 H22            1.5532    -1.4572    -0.0203 H       
  23 H23           -2.4273     0.9178     0.0212 H       
  24 H24           -1.5568     5.5255    -0.5412 H       
  25 H25           -2.7588     4.2224    -0.3816 H       
  26 H26           -0.7133     6.6841     1.4173 H       
  27 H27           -1.1531     7.3777     3.7383 H       
  28 H28           -2.8123     6.1645     5.0930 H       
  29 H29           -3.5975     3.5660     1.7983 H       
@<TRIPOS>BOND
   1    1    7 1
   2    1    2 1
   3    1    6 1
   4    2    3 1
   5    2    9 2
   6    3    4 2
   7    4    5 1
   8    4   13 1
   9    5    6 2
  10    5   11 1
  11    6   10 1
  12    7    8 2
  13    8    9 1
  14    8   22 1
  15    9   20 1
  16   10   23 1
  17   11   12 1
  18   11   24 1
  19   11   25 1
  20   12   14 ar
  21   12   18 ar
  22   14   15 ar
  23   14   26 1
  24   15   16 ar
  25   15   27 1
  26   16   17 ar
  27   16   28 1
  28   17   18 ar
  29   17   19 1
  30   18   29 1
  31   20   21 3

#	End of record

