#	Name: ASD01420134
#	Creating user name:	WinNT
#	Creation time:	15. 06. 2019 19:20

#	Modifying user name:	WinNT
#	Modification time:	15. 06. 2019 19:20

#	Program:	/corina/corina34_cracker 3.40 0067  02.08.2006

@<TRIPOS>MOLECULE
ASD01420134
  56   59    0    0    0
SMALL
NO_CHARGES


@<TRIPOS>ATOM
   1 O1             1.6268     0.9329     0.9353 O.3     
   2 C2             1.3122    -0.3120     0.5213 C.ar    
   3 C3             0.5171    -0.1852    -0.6325 C.ar    
   4 C4             0.3873     1.2554    -0.8673 C.2     
   5 C5             1.0856     1.8613     0.1224 C.2     
   6 C6             1.6189    -1.5785     1.0062 C.ar    
   7 C7             1.1476    -2.6988     0.3617 C.ar    
   8 C8             0.3562    -2.5796    -0.7872 C.ar    
   9 C9             0.0396    -1.3205    -1.2848 C.ar    
  10 C10            1.2326     3.3226     0.2861 C.ar    
  11 C11            0.1137     4.1530     0.1965 C.ar    
  12 C12            0.2550     5.5155     0.3503 C.ar    
  13 C13            1.5080     6.0626     0.5935 C.ar    
  14 C14            2.6234     5.2401     0.6832 C.ar    
  15 C15            2.4898     3.8760     0.5364 C.ar    
  16 O16            1.6432     7.4061     0.7435 O.3     
  17 C17           -0.3695     1.9269    -1.9843 C.3     
  18 C18            2.9603     7.9020     0.9915 C.3     
  19 C19            2.0358     9.9075     2.1546 C.3     
  20 C20            2.9347     9.4326     1.0088 C.3     
  21 O21            3.4206     7.4202     2.2557 O.3     
  22 C22            2.5927     7.7935     3.3590 C.3     
  23 C23            2.5524     9.3198     3.4714 C.3     
  24 O24            2.4200     9.9157    -0.2336 O.3     
  25 C25            3.1643     7.2018     4.6490 C.3     
  26 O26            3.8676     9.8144     3.7317 O.3     
  27 O27            2.0641    11.3345     2.2243 O.3     
  28 C28           -0.1432    -3.7918    -1.4701 C.2     
  29 C29            0.1582    -4.9920    -0.9948 C.2     
  30 C30           -0.3509    -6.2278    -1.6911 C.3     
  31 H31            2.2291    -1.6831     1.8911 H       
  32 H32            1.3906    -3.6788     0.7450 H       
  33 H33           -0.5710    -1.2230    -2.1703 H       
  34 H34           -0.8610     3.7284     0.0067 H       
  35 H35           -0.6100     6.1585     0.2812 H       
  36 H36            3.5961     5.6694     0.8725 H       
  37 H37            3.3570     3.2366     0.6108 H       
  38 H38           -1.3685     2.1920    -1.6382 H       
  39 H39            0.1600     2.8289    -2.2911 H       
  40 H40           -0.4473     1.2454    -2.8314 H       
  41 H41            3.6321     7.5583     0.2050 H       
  42 H42            1.0142     9.5698     1.9806 H       
  43 H43            3.9456     9.8121     1.1576 H       
  44 H44            1.5833     7.4139     3.2008 H       
  45 H45            1.8864     9.6076     4.2849 H       
  46 H46            2.9411     9.6521    -1.0044 H       
  47 H47            4.1736     7.5820     4.8071 H       
  48 H48            2.5328     7.4867     5.4904 H       
  49 H49            3.1939     6.1152     4.5684 H       
  50 H50            4.2574     9.4825     4.5521 H       
  51 H51            1.7559    11.7738     1.4199 H       
  52 H52           -0.7536    -3.6996    -2.3562 H       
  53 H53            0.7686    -5.0843    -0.1087 H       
  54 H54            0.0232    -6.2483    -2.7146 H       
  55 H55           -0.0034    -7.1136    -1.1594 H       
  56 H56           -1.4408    -6.2153    -1.7027 H       
@<TRIPOS>BOND
   1    1    2 1
   2    1    5 1
   3    2    3 ar
   4    2    6 ar
   5    3    4 1
   6    3    9 ar
   7    4    5 2
   8    4   17 1
   9    5   10 1
  10    6    7 ar
  11    6   31 1
  12    7    8 ar
  13    7   32 1
  14    8    9 ar
  15    8   28 1
  16    9   33 1
  17   10   11 ar
  18   10   15 ar
  19   11   12 ar
  20   11   34 1
  21   12   13 ar
  22   12   35 1
  23   13   14 ar
  24   13   16 1
  25   14   15 ar
  26   14   36 1
  27   15   37 1
  28   16   18 1
  29   17   38 1
  30   17   39 1
  31   17   40 1
  32   18   21 1
  33   18   20 1
  34   18   41 1
  35   19   20 1
  36   19   23 1
  37   19   27 1
  38   19   42 1
  39   20   24 1
  40   20   43 1
  41   21   22 1
  42   22   23 1
  43   22   25 1
  44   22   44 1
  45   23   26 1
  46   23   45 1
  47   24   46 1
  48   25   47 1
  49   25   48 1
  50   25   49 1
  51   26   50 1
  52   27   51 1
  53   28   29 2
  54   28   52 1
  55   29   30 1
  56   29   53 1
  57   30   54 1
  58   30   55 1
  59   30   56 1

#	End of record

