#	Name: ASD04550062
#	Creating user name:	WinNT
#	Creation time:	15. 06. 2019 20:49

#	Modifying user name:	WinNT
#	Modification time:	15. 06. 2019 20:49

#	Program:	/corina/corina34_cracker 3.40 0067  02.08.2006

@<TRIPOS>MOLECULE
ASD04550062
  41   42    0    0    0
SMALL
NO_CHARGES


@<TRIPOS>ATOM
   1 C1            -0.0167     1.3831     0.0096 C.ar    
   2 C2             0.0021    -0.0041     0.0020 C.ar    
   3 C3             1.2141    -0.6789    -0.0132 C.ar    
   4 C4             2.3989     0.0314    -0.0207 C.ar    
   5 C5             2.3774     1.4139    -0.0126 C.ar    
   6 C6             1.1708     2.0889     0.0021 C.ar    
   7 C7             3.6714     2.1863    -0.0198 C.3     
   8 C8             3.7284     3.0742    -1.2645 C.3     
   9 O9            -1.1648    -0.7006     0.0099 O.3     
  10 S10           -1.7101    -1.0105    -1.3769 S.o2    
  11 O11           -3.0259    -1.4906    -1.1368 O.2     
  12 O12           -1.4892     0.1834    -2.1151 O.2     
  13 C13            3.7497     3.0468     1.2149 C.2     
  14 O14            2.8439     3.0340     2.0214 O.2     
  15 N15            4.8262     3.8305     1.4230 N.am    
  16 S16            4.9122     4.7760     2.7799 S.o2    
  17 O17            3.6697     5.4591     2.8723 O.2     
  18 C18            4.9885     3.6921     4.1669 C.ar    
  19 O19            6.1647     5.4449     2.7241 O.2     
  20 C20            6.2122     3.2535     4.6486 C.ar    
  21 C21            6.2239     2.4016     5.7427 C.ar    
  22 C22            5.0240     2.0209     6.3126 C.ar    
  23 N23            3.8781     2.4576     5.8273 N.ar    
  24 C24            3.8291     3.2729     4.7921 C.ar    
  25 C25           -0.6479    -2.3457    -1.9931 C.3     
  26 F26           -0.7408    -3.4482    -1.1370 F       
  27 F27           -1.0619    -2.7160    -3.2771 F       
  28 F28            0.6781    -1.9024    -2.0404 F       
  29 H29           -0.9590     1.9108     0.0170 H       
  30 H30            1.2314    -1.7588    -0.0188 H       
  31 H31            3.3426    -0.4935    -0.0325 H       
  32 H32            1.1567     3.1688     0.0084 H       
  33 H33            4.5100     1.4902    -0.0313 H       
  34 H34            2.8898     3.7703    -1.2530 H       
  35 H35            4.6643     3.6329    -1.2698 H       
  36 H36            3.6718     2.4518    -2.1576 H       
  37 H37            5.5506     3.8407     0.7781 H       
  38 H38            7.1345     3.5675     4.1825 H       
  39 H39            7.1590     2.0400     6.1442 H       
  40 H40            5.0245     1.3577     7.1649 H       
  41 H41            2.8718     3.6096     4.4227 H       
@<TRIPOS>BOND
   1    1    2 ar
   2    1    6 ar
   3    1   29 1
   4    2    3 ar
   5    2    9 1
   6    3    4 ar
   7    3   30 1
   8    4    5 ar
   9    4   31 1
  10    5    6 ar
  11    5    7 1
  12    6   32 1
  13    7    8 1
  14    7   13 1
  15    7   33 1
  16    8   34 1
  17    8   35 1
  18    8   36 1
  19    9   10 1
  20   10   11 2
  21   10   12 2
  22   10   25 1
  23   13   14 2
  24   13   15 am
  25   15   16 am
  26   15   37 1
  27   16   17 2
  28   16   18 1
  29   16   19 2
  30   18   20 ar
  31   18   24 ar
  32   20   21 ar
  33   20   38 1
  34   21   22 ar
  35   21   39 1
  36   22   23 ar
  37   22   40 1
  38   23   24 ar
  39   24   41 1
  40   25   26 1
  41   25   27 1
  42   25   28 1

#	End of record

