#	Name: ASD01917828
#	Creating user name:	WinNT
#	Creation time:	15. 06. 2019 20:10

#	Modifying user name:	WinNT
#	Modification time:	15. 06. 2019 20:10

#	Program:	/corina/corina34_cracker 3.40 0067  02.08.2006

@<TRIPOS>MOLECULE
ASD01917828
  47   50    0    0    0
SMALL
NO_CHARGES


@<TRIPOS>ATOM
   1 C1            -0.0162     1.3420     0.0094 C.2     
   2 C2             0.0021    -0.0041     0.0020 C.2     
   3 C3            -1.2625    -0.8491     0.0029 C.3     
   4 C4            -2.4365     0.0058     0.4862 C.3     
   5 N5            -2.4115     1.2983    -0.2151 N.am    
   6 C6            -1.2661     2.1916     0.0316 C.3     
   7 C7            -3.4039     1.6536    -1.0549 C.2     
   8 O8            -4.3375     0.9026    -1.2427 O.2     
   9 S9             1.6413     1.9277    -0.0033 S.3     
  10 C10            2.2175     0.3185    -0.0127 C.2     
  11 N11            1.2296    -0.5056    -0.0076 N.2     
  12 C12            3.6715    -0.0774    -0.0256 C.3     
  13 O13            4.1204    -0.1979    -1.3769 O.3     
  14 C14            5.4189    -0.5513    -1.5665 C.ar    
  15 C15            5.9215    -0.6866    -2.8524 C.ar    
  16 C16            7.2418    -1.0459    -3.0425 C.ar    
  17 C17            8.0621    -1.2707    -1.9524 C.ar    
  18 C18            7.5635    -1.1369    -0.6697 C.ar    
  19 C19            6.2456    -0.7718    -0.4744 C.ar    
  20 C20           -3.3535     2.9842    -1.7607 C.3     
  21 C21           -5.7153     4.4872    -4.1245 C.ar    
  22 C22           -4.6188     4.2811    -3.3000 C.ar    
  23 O23           -4.5091     3.1281    -2.5890 O.3     
  24 C24           -5.8243     5.6599    -4.8465 C.ar    
  25 C25           -4.8415     6.6275    -4.7483 C.ar    
  26 C26           -3.7479     6.4246    -3.9270 C.ar    
  27 C27           -3.6343     5.2537    -3.2028 C.ar    
  28 H28           -1.4631    -1.2058    -1.0073 H       
  29 H29           -1.1318    -1.6999     0.6716 H       
  30 H30           -3.3738    -0.5074     0.2713 H       
  31 H31           -2.3486     0.1719     1.5599 H       
  32 H32           -1.3729     2.6707     1.0048 H       
  33 H33           -1.2116     2.9486    -0.7508 H       
  34 H34            4.2600     0.6841     0.4862 H       
  35 H35            3.7923    -1.0333     0.4841 H       
  36 H36            5.2811    -0.5115    -3.7042 H       
  37 H37            7.6335    -1.1517    -4.0434 H       
  38 H38            9.0940    -1.5515    -2.1031 H       
  39 H39            8.2060    -1.3137     0.1801 H       
  40 H40            5.8565    -0.6674     0.5277 H       
  41 H41           -3.3330     3.7863    -1.0230 H       
  42 H42           -2.4560     3.0346    -2.3773 H       
  43 H43           -6.4809     3.7297    -4.2052 H       
  44 H44           -6.6777     5.8209    -5.4885 H       
  45 H45           -4.9284     7.5435    -5.3139 H       
  46 H46           -2.9813     7.1816    -3.8525 H       
  47 H47           -2.7799     5.0957    -2.5614 H       
@<TRIPOS>BOND
   1    1    2 2
   2    1    9 1
   3    1    6 1
   4    2    3 1
   5    2   11 1
   6    3    4 1
   7    3   28 1
   8    3   29 1
   9    4    5 1
  10    4   30 1
  11    4   31 1
  12    5    6 1
  13    5    7 am
  14    6   32 1
  15    6   33 1
  16    7    8 2
  17    7   20 1
  18    9   10 1
  19   10   11 2
  20   10   12 1
  21   12   13 1
  22   12   34 1
  23   12   35 1
  24   13   14 1
  25   14   15 ar
  26   14   19 ar
  27   15   16 ar
  28   15   36 1
  29   16   17 ar
  30   16   37 1
  31   17   18 ar
  32   17   38 1
  33   18   19 ar
  34   18   39 1
  35   19   40 1
  36   20   23 1
  37   20   41 1
  38   20   42 1
  39   21   22 ar
  40   21   24 ar
  41   21   43 1
  42   22   23 1
  43   22   27 ar
  44   24   25 ar
  45   24   44 1
  46   25   26 ar
  47   25   45 1
  48   26   27 ar
  49   26   46 1
  50   27   47 1

#	End of record

