#	Name: ASD02508119
#	Creating user name:	WinNT
#	Creation time:	15. 06. 2019 20:23

#	Modifying user name:	WinNT
#	Modification time:	15. 06. 2019 20:23

#	Program:	/corina/corina34_cracker 3.40 0067  02.08.2006

@<TRIPOS>MOLECULE
ASD02508119
  30   32    0    0    0
SMALL
NO_CHARGES


@<TRIPOS>ATOM
   1 C1             0.9369     2.2603     0.0108 C.ar    
   2 C2             0.6004     0.9035     0.1300 C.ar    
   3 C3             2.2869     2.5824    -0.1348 C.ar    
   4 C4             3.2660     1.6063    -0.1617 C.ar    
   5 C5             2.9125     0.2697    -0.0423 C.ar    
   6 C6             1.5722    -0.0688     0.1039 C.ar    
   7 N7             0.0842     3.3527     0.0129 N.am    
   8 C8             0.6097     4.5749    -0.1139 C.2     
   9 S9             2.3604     4.3458    -0.2561 S.3     
  10 N10            3.8945    -0.7265    -0.0687 N.am    
  11 S11            3.8686    -1.9446     1.0528 S.o2    
  12 C12            4.0527    -1.1981     2.6381 C.ar    
  13 C13            2.9353    -0.8998     3.3954 C.ar    
  14 O14            0.0067     5.6321    -0.1312 O.2     
  15 O15            2.5587    -2.4944     1.0178 O.2     
  16 O16            5.0415    -2.7164     0.8341 O.2     
  17 C17            5.3145    -0.9161     3.1268 C.ar    
  18 C18            5.4597    -0.3311     4.3711 C.ar    
  19 C19            4.3433    -0.0280     5.1270 C.ar    
  20 C20            3.0800    -0.3141     4.6402 C.ar    
  21 Cl21           1.6770     0.0669     5.5890 Cl      
  22 H22           -0.4352     0.6192     0.2441 H       
  23 H23            4.3035     1.8835    -0.2759 H       
  24 H24            1.2909    -1.1073     0.1974 H       
  25 H25           -0.8741     3.2328     0.1042 H       
  26 H26            4.5906    -0.7036    -0.7439 H       
  27 H27            1.9496    -1.1236     3.0151 H       
  28 H28            6.1873    -1.1531     2.5365 H       
  29 H29            6.4459    -0.1113     4.7525 H       
  30 H30            4.4569     0.4283     6.0993 H       
@<TRIPOS>BOND
   1    1    2 ar
   2    1    3 ar
   3    1    7 1
   4    2    6 ar
   5    2   22 1
   6    3    4 ar
   7    3    9 1
   8    4    5 ar
   9    4   23 1
  10    5    6 ar
  11    5   10 1
  12    6   24 1
  13    7    8 am
  14    7   25 1
  15    8    9 1
  16    8   14 2
  17   10   11 am
  18   10   26 1
  19   11   12 1
  20   11   15 2
  21   11   16 2
  22   12   13 ar
  23   12   17 ar
  24   13   20 ar
  25   13   27 1
  26   17   18 ar
  27   17   28 1
  28   18   19 ar
  29   18   29 1
  30   19   20 ar
  31   19   30 1
  32   20   21 1

#	End of record

