#	Name: ASD08830265
#	Creating user name:	WinNT
#	Creation time:	15. 06. 2019 21:20

#	Modifying user name:	WinNT
#	Modification time:	15. 06. 2019 21:20

#	Program:	/corina/corina34_cracker 3.40 0067  02.08.2006

@<TRIPOS>MOLECULE
ASD08830265
  34   36    0    0    0
SMALL
NO_CHARGES


@<TRIPOS>ATOM
   1 C1            -0.2193     1.3635    -0.1404 C.ar    
   2 C2            -0.1418    -0.0144    -0.1216 C.ar    
   3 C3             1.1031    -0.6430    -0.0981 C.ar    
   4 C4             2.2660     0.1235    -0.0943 C.ar    
   5 C5             2.1791     1.5077    -0.1137 C.ar    
   6 C6             0.9342     2.1251    -0.1366 C.ar    
   7 C7             1.1882    -2.1226    -0.0769 C.ar    
   8 C8             0.3363    -2.8755     0.7465 C.ar    
   9 C9             0.4596    -4.2608     0.7268 C.ar    
  10 N10            1.3676    -4.8151    -0.0605 N.ar    
  11 C11            2.1522    -4.0766    -0.8220 C.ar    
  12 N12            2.0700    -2.7615    -0.8424 N.ar    
  13 Cl13           3.3245    -4.8619    -1.8331 Cl      
  14 N14            3.3425     2.2810    -0.1095 N.pl3   
  15 N15           -0.6084    -2.2509     1.5632 N.pl3   
  16 C16           -0.1960    -1.5534     2.7010 C.ar    
  17 C17           -1.1164    -0.8223     3.4405 C.ar    
  18 C18           -0.7042    -0.1328     4.5667 C.ar    
  19 C19            0.6246    -0.1717     4.9556 C.ar    
  20 C20            1.5419    -0.8993     4.2199 C.ar    
  21 C21            1.1351    -1.5942     3.0982 C.ar    
  22 F22           -1.5980     0.5793     5.2873 F       
  23 H23           -1.1842     1.8482    -0.1626 H       
  24 H24           -1.0454    -0.6060    -0.1246 H       
  25 H25            3.2324    -0.3584    -0.0758 H       
  26 H26            0.8679     3.2029    -0.1521 H       
  27 H27           -0.1767    -4.8757     1.3459 H       
  28 H28            4.2113     1.8499    -0.0929 H       
  29 H29            3.2816     3.2490    -0.1231 H       
  30 H30           -1.5511    -2.3014     1.3404 H       
  31 H31           -2.1523    -0.7919     3.1368 H       
  32 H32            0.9448     0.3675     5.8348 H       
  33 H33            2.5773    -0.9277     4.5258 H       
  34 H34            1.8528    -2.1624     2.5249 H       
@<TRIPOS>BOND
   1    1    2 ar
   2    1    6 ar
   3    1   23 1
   4    2    3 ar
   5    2   24 1
   6    3    4 ar
   7    3    7 1
   8    4    5 ar
   9    4   25 1
  10    5    6 ar
  11    5   14 1
  12    6   26 1
  13    7    8 ar
  14    7   12 ar
  15    8    9 ar
  16    8   15 1
  17    9   10 ar
  18    9   27 1
  19   10   11 ar
  20   11   12 ar
  21   11   13 1
  22   14   28 1
  23   14   29 1
  24   15   16 1
  25   15   30 1
  26   16   17 ar
  27   16   21 ar
  28   17   18 ar
  29   17   31 1
  30   18   19 ar
  31   18   22 1
  32   19   20 ar
  33   19   32 1
  34   20   21 ar
  35   20   33 1
  36   21   34 1

#	End of record

