#	Name: ASD01410934
#	Creating user name:	WinNT
#	Creation time:	15. 06. 2019 19:19

#	Modifying user name:	WinNT
#	Modification time:	15. 06. 2019 19:19

#	Program:	/corina/corina34_cracker 3.40 0067  02.08.2006

@<TRIPOS>MOLECULE
ASD01410934
  79   82    0    0    0
SMALL
NO_CHARGES


@<TRIPOS>ATOM
   1 C1            -0.2435     1.2162     0.6253 C.ar    
   2 C2            -0.0490    -0.1528     0.4856 C.ar    
   3 C3            -1.1305    -1.0056     0.3962 C.ar    
   4 C4            -2.4223    -0.5004     0.4458 C.ar    
   5 C5            -2.6255     0.8808     0.5871 C.ar    
   6 C6            -1.5243     1.7351     0.6821 C.ar    
   7 O7             0.8288     2.0475     0.7121 O.3     
   8 C8             1.2196     2.4579     1.9471 C.ar    
   9 N9            -3.5143    -1.3623     0.3549 N.am    
  10 C10           -4.2726    -1.6061     1.4421 C.2     
  11 C11           -5.3791    -2.6270     1.3754 C.3     
  12 O12           -4.0646    -1.0038     2.4740 O.2     
  13 C13           -5.8968    -2.9109     2.7869 C.3     
  14 C14           -6.5209    -2.0861     0.5126 C.3     
  15 C15           -7.6442    -3.1226     0.4449 C.3     
  16 C16           -8.1619    -3.4065     1.8564 C.3     
  17 C17           -7.0201    -3.9474     2.7193 C.3     
  18 O18           -9.2111    -4.3746     1.7933 O.3     
  19 C19            0.6026     1.9425     3.0784 C.ar    
  20 C20           -3.8375    -2.0030    -0.9223 C.3     
  21 C21           -3.9754    -0.9343    -2.0085 C.3     
  22 O22           -5.1240    -0.1277    -1.7401 O.3     
  23 O23           -2.6202    -3.9991    -0.3105 O.3     
  24 C24           -2.7191    -2.9753    -1.3025 C.3     
  25 C25           -5.4312     0.8089    -2.7748 C.3     
  26 C26           -1.6788    -5.0264    -0.6272 C.3     
  27 C27            2.2399     3.3886     2.0796 C.ar    
  28 C28            2.6352     3.8042     3.3365 C.ar    
  29 C29            2.0154     3.2931     4.4616 C.ar    
  30 C30            1.0017     2.3613     4.3325 C.ar    
  31 C31            2.4491     3.7479     5.8313 C.3     
  32 N32            1.6626     4.9181     6.2291 N.pl3   
  33 N33            0.5473     4.8662     6.8674 N.2     
  34 C34            0.1148     6.0915     7.0608 C.2     
  35 C35            1.0690     6.9302     6.4802 C.2     
  36 N36            1.9960     6.1373     5.9924 N.2     
  37 C37            2.9166     3.9455     0.8536 C.3     
  38 F38            3.9041     4.8581     1.2400 F       
  39 F39            3.5037     2.9017     0.1304 F       
  40 F40            1.9704     4.5935     0.0524 F       
  41 C41           -3.9935     1.4268     0.6408 C.2     
  42 O42           -4.6156     1.4058     1.6844 O.2     
  43 O43           -4.5544     1.9492    -0.4676 O.3     
  44 C44           -1.7313     3.2200     0.8347 C.3     
  45 H45            0.9539    -0.5515     0.4465 H       
  46 H46           -0.9713    -2.0682     0.2871 H       
  47 H47           -4.9971    -3.5487     0.9364 H       
  48 H48           -5.0833    -3.2963     3.4016 H       
  49 H49           -6.2788    -1.9892     3.2260 H       
  50 H50           -6.9029    -1.1645     0.9517 H       
  51 H51           -6.1521    -1.8839    -0.4930 H       
  52 H52           -8.4577    -2.7373    -0.1698 H       
  53 H53           -7.2622    -4.0443     0.0059 H       
  54 H54           -8.5440    -2.4849     2.2955 H       
  55 H55           -6.6381    -4.8691     2.2802 H       
  56 H56           -7.3890    -4.1496     3.7249 H       
  57 H57           -9.5876    -4.6033     2.6541 H       
  58 H58           -0.1891     1.2148     2.9781 H       
  59 H59           -4.7765    -2.5483    -0.8279 H       
  60 H60           -3.0843    -0.3066    -2.0158 H       
  61 H61           -4.0885    -1.4159    -2.9798 H       
  62 H62           -2.9429    -3.4265    -2.2692 H       
  63 H63           -1.7738    -2.4360    -1.3635 H       
  64 H64           -4.5775     1.4676    -2.9337 H       
  65 H65           -5.6524     0.2718    -3.6971 H       
  66 H66           -6.2980     1.4016    -2.4826 H       
  67 H67           -0.6743    -4.6040    -0.6508 H       
  68 H68           -1.7262    -5.8088     0.1302 H       
  69 H69           -1.9178    -5.4501    -1.6027 H       
  70 H70            3.4294     4.5287     3.4402 H       
  71 H71            0.5189     1.9639     5.2130 H       
  72 H72            2.2906     2.9426     6.5486 H       
  73 H73            3.5065     4.0114     5.8088 H       
  74 H74           -0.7926     6.3893     7.5651 H       
  75 H75            1.0508     8.0095     6.4438 H       
  76 H76           -5.4647     2.2664    -0.3911 H       
  77 H77           -1.7873     3.4721     1.8936 H       
  78 H78           -0.8968     3.7521     0.3781 H       
  79 H79           -2.6598     3.5098     0.3427 H       
@<TRIPOS>BOND
   1    1    2 ar
   2    1    7 1
   3    1    6 ar
   4    2    3 ar
   5    2   45 1
   6    3    4 ar
   7    3   46 1
   8    4    5 ar
   9    4    9 1
  10    5    6 ar
  11    5   41 1
  12    6   44 1
  13    7    8 1
  14    8   27 ar
  15    8   19 ar
  16    9   10 am
  17    9   20 1
  18   10   11 1
  19   10   12 2
  20   11   13 1
  21   11   14 1
  22   11   47 1
  23   13   17 1
  24   13   48 1
  25   13   49 1
  26   14   15 1
  27   14   50 1
  28   14   51 1
  29   15   16 1
  30   15   52 1
  31   15   53 1
  32   16   17 1
  33   16   18 1
  34   16   54 1
  35   17   55 1
  36   17   56 1
  37   18   57 1
  38   19   30 ar
  39   19   58 1
  40   20   21 1
  41   20   24 1
  42   20   59 1
  43   21   22 1
  44   21   60 1
  45   21   61 1
  46   22   25 1
  47   23   24 1
  48   23   26 1
  49   24   62 1
  50   24   63 1
  51   25   64 1
  52   25   65 1
  53   25   66 1
  54   26   67 1
  55   26   68 1
  56   26   69 1
  57   27   28 ar
  58   27   37 1
  59   28   29 ar
  60   28   70 1
  61   29   30 ar
  62   29   31 1
  63   30   71 1
  64   31   32 1
  65   31   72 1
  66   31   73 1
  67   32   33 1
  68   32   36 1
  69   33   34 2
  70   34   35 1
  71   34   74 1
  72   35   36 2
  73   35   75 1
  74   37   38 1
  75   37   39 1
  76   37   40 1
  77   41   42 2
  78   41   43 1
  79   43   76 1
  80   44   77 1
  81   44   78 1
  82   44   79 1

#	End of record

