#	Name: ASD01911044
#	Creating user name:	WinNT
#	Creation time:	15. 06. 2019 19:57

#	Modifying user name:	WinNT
#	Modification time:	15. 06. 2019 19:57

#	Program:	/corina/corina34_cracker 3.40 0067  02.08.2006

@<TRIPOS>MOLECULE
ASD01911044
  51   54    0    0    0
SMALL
NO_CHARGES


@<TRIPOS>ATOM
   1 N1             0.2529     1.0946    -0.0689 N.3     
   2 C2             0.0749    -0.3310     0.2379 C.3     
   3 C3            -1.4185    -0.6317     0.4040 C.3     
   4 N4            -2.1262    -0.1608    -0.7962 N.am    
   5 C5            -1.8908     1.2196    -1.2461 C.3     
   6 C6            -0.3789     1.4474    -1.3473 C.3     
   7 C7            -2.9685    -0.9724    -1.4657 C.2     
   8 C8            -3.7651    -0.4432    -2.5935 C.ar    
   9 C9            -3.9524    -1.2164    -3.7414 C.ar    
  10 C10           -4.6956    -0.7243    -4.7965 C.ar    
  11 C11           -5.2585     0.5338    -4.7252 C.ar    
  12 C12           -5.0794     1.3193    -3.5820 C.ar    
  13 C13           -4.3351     0.8252    -2.5108 C.ar    
  14 C14           -5.6631     2.6249    -3.5092 C.1     
  15 O15           -3.0733    -2.1395    -1.1424 O.2     
  16 C16           -6.1416     3.6952    -3.4495 C.1     
  17 C17           -6.7254     5.0008    -3.3767 C.ar    
  18 N18           -6.5509     5.7420    -2.2867 N.ar    
  19 C19           -7.0712     6.9475    -2.1819 C.ar    
  20 C20           -7.8227     7.4892    -3.2087 C.ar    
  21 C21           -8.0304     6.7501    -4.3657 C.ar    
  22 C22           -7.4694     5.4892    -4.4540 C.ar    
  23 C23            1.5935     1.4388    -0.0664 C.ar    
  24 N24            2.5026     0.5836    -0.5170 N.ar    
  25 C25            3.7816     0.9159    -0.5130 C.ar    
  26 C26            4.1817     2.1555    -0.0394 C.ar    
  27 N27            3.2902     3.0159     0.4120 N.ar    
  28 C28            1.9986     2.6986     0.4081 C.ar    
  29 C29            1.0270     3.6301     0.8969 C.1     
  30 N30            0.2563     4.3691     1.2847 N.1     
  31 C31           -6.0674     1.0624    -5.8816 C.3     
  32 F32           -6.1046     0.1050    -6.9010 F       
  33 F33           -7.3702     1.3374    -5.4524 F       
  34 F34           -5.4783     2.2357    -6.3651 F       
  35 H35            0.4784    -0.9316    -0.5773 H       
  36 H36            0.5996    -0.5723     1.1623 H       
  37 H37           -1.5652    -1.7058     0.5178 H       
  38 H38           -1.8012    -0.1119     1.2824 H       
  39 H39           -2.3499     1.3695    -2.2233 H       
  40 H40           -2.3189     1.9173    -0.5264 H       
  41 H41           -0.1833     2.4958    -1.5725 H       
  42 H42            0.0309     0.8220    -2.1404 H       
  43 H43           -3.5145    -2.2017    -3.8045 H       
  44 H44           -4.8366    -1.3267    -5.6817 H       
  45 H45           -4.1932     1.4271    -1.6253 H       
  46 H46           -6.9090     7.5209    -1.2812 H       
  47 H47           -8.2447     8.4786    -3.1113 H       
  48 H48           -8.6138     7.1528    -5.1805 H       
  49 H49           -7.6108     4.8875    -5.3397 H       
  50 H50            4.5191     0.2177    -0.8803 H       
  51 H51            5.2294     2.4180    -0.0398 H       
@<TRIPOS>BOND
   1    1    2 1
   2    1   23 1
   3    1    6 1
   4    2    3 1
   5    2   35 1
   6    2   36 1
   7    3    4 1
   8    3   37 1
   9    3   38 1
  10    4    5 1
  11    4    7 am
  12    5    6 1
  13    5   39 1
  14    5   40 1
  15    6   41 1
  16    6   42 1
  17    7    8 1
  18    7   15 2
  19    8    9 ar
  20    8   13 ar
  21    9   10 ar
  22    9   43 1
  23   10   11 ar
  24   10   44 1
  25   11   12 ar
  26   11   31 1
  27   12   13 ar
  28   12   14 1
  29   13   45 1
  30   14   16 3
  31   16   17 1
  32   17   18 ar
  33   17   22 ar
  34   18   19 ar
  35   19   20 ar
  36   19   46 1
  37   20   21 ar
  38   20   47 1
  39   21   22 ar
  40   21   48 1
  41   22   49 1
  42   23   24 ar
  43   23   28 ar
  44   24   25 ar
  45   25   26 ar
  46   25   50 1
  47   26   27 ar
  48   26   51 1
  49   27   28 ar
  50   28   29 1
  51   29   30 3
  52   31   32 1
  53   31   33 1
  54   31   34 1

#	End of record

