#	Name: ASD01140555
#	Creating user name:	WinNT
#	Creation time:	15. 06. 2019 19:01

#	Modifying user name:	WinNT
#	Modification time:	15. 06. 2019 19:01

#	Program:	/corina/corina34_cracker 3.40 0067  02.08.2006

@<TRIPOS>MOLECULE
ASD01140555
  32   34    0    0    0
SMALL
NO_CHARGES


@<TRIPOS>ATOM
   1 C1            -0.0178     1.4608     0.0101 C.3     
   2 N2             0.0021    -0.0041     0.0020 N.pl3   
   3 N3             0.0082    -0.8025    -1.1472 N.2     
   4 C4             0.0277    -2.0729    -0.7969 C.ar    
   5 C5             0.0419    -3.3430    -1.5259 C.ar    
   6 C6             0.0613    -4.5203    -0.8034 C.ar    
   7 C7             0.0671    -4.5160     0.5877 C.ar    
   8 C8             0.0546    -3.3677     1.3134 C.ar    
   9 C9             0.0349    -2.1182     0.6716 C.ar    
  10 C10            0.0232    -0.7873     1.1036 C.2     
  11 C11            0.0301    -0.3264     2.4971 C.2     
  12 C12            0.9047     0.5991     2.8882 C.2     
  13 C13            0.0350    -3.3648    -3.0061 C.ar    
  14 C14           -1.0568    -3.8948    -3.6935 C.ar    
  15 C15           -1.0581    -3.9122    -5.0731 C.ar    
  16 C16            0.0215    -3.4048    -5.7760 C.ar    
  17 Cl17           0.0121    -3.4304    -7.5118 Cl      
  18 C18            1.1084    -2.8767    -5.1000 C.ar    
  19 C19            1.1191    -2.8495    -3.7198 C.ar    
  20 Cl20           2.4797    -2.1817    -2.8733 Cl      
  21 H21            1.0048     1.8381     0.0023 H       
  22 H22           -0.5450     1.8219    -0.8730 H       
  23 H23           -0.5280     1.8123     0.9069 H       
  24 H24            0.0720    -5.4635    -1.3294 H       
  25 H25            0.0818    -5.4610     1.1103 H       
  26 H26            0.0594    -3.4158     2.3923 H       
  27 H27           -0.6739    -0.7376     3.2054 H       
  28 H28            0.9098     0.9383     3.9135 H       
  29 H29            1.6087     1.0103     2.1799 H       
  30 H30           -1.8996    -4.2913    -3.1468 H       
  31 H31           -1.9031    -4.3228    -5.6060 H       
  32 H32            1.9478    -2.4824    -5.6535 H       
@<TRIPOS>BOND
   1    1    2 1
   2    1   21 1
   3    1   22 1
   4    1   23 1
   5    2   10 1
   6    2    3 1
   7    3    4 2
   8    4    9 ar
   9    4    5 ar
  10    5    6 ar
  11    5   13 1
  12    6    7 ar
  13    6   24 1
  14    7    8 ar
  15    7   25 1
  16    8    9 ar
  17    8   26 1
  18    9   10 2
  19   10   11 1
  20   11   12 2
  21   11   27 1
  22   12   28 1
  23   12   29 1
  24   13   19 ar
  25   13   14 ar
  26   14   15 ar
  27   14   30 1
  28   15   16 ar
  29   15   31 1
  30   16   17 1
  31   16   18 ar
  32   18   19 ar
  33   18   32 1
  34   19   20 1

#	End of record

