#	Name: ASD01350015
#	Creating user name:	WinNT
#	Creation time:	15. 06. 2019 19:16

#	Modifying user name:	WinNT
#	Modification time:	15. 06. 2019 19:16

#	Program:	/corina/corina34_cracker 3.40 0067  02.08.2006

@<TRIPOS>MOLECULE
ASD01350015
  48   51    0    0    0
SMALL
NO_CHARGES


@<TRIPOS>ATOM
   1 C1             0.8316    -0.0007     1.0553 C.2     
   2 C2             0.0021    -0.0041     0.0020 C.2     
   3 C3            -1.2308    -0.8706     0.0166 C.3     
   4 N4            -1.2805    -1.6721    -1.2135 N.3     
   5 C5            -2.4719    -2.5312    -1.2343 C.3     
   6 C6            -3.6621    -1.7396    -1.7800 C.3     
   7 C7            -2.2112    -3.7432    -2.1310 C.3     
   8 C8            -1.1200    -4.5893    -1.5273 C.ar    
   9 C9            -1.4403    -5.6029    -0.6436 C.ar    
  10 C10           -0.4394    -6.3790    -0.0898 C.ar    
  11 C11            0.8818    -6.1417    -0.4200 C.ar    
  12 C12            1.2021    -5.1287    -1.3044 C.ar    
  13 C13            0.2008    -4.3554    -1.8616 C.ar    
  14 C14            2.1988     0.5689     1.0994 C.ar    
  15 C15            2.7101     0.3578     2.3900 C.ar    
  16 C16            1.6893    -0.3468     3.1962 C.ar    
  17 C17            0.5532    -0.5601     2.3989 C.ar    
  18 C18            1.6899    -0.7869     4.5191 C.ar    
  19 C19            0.5828    -1.4309     5.0322 C.ar    
  20 C20           -0.5341    -1.6457     4.2419 C.ar    
  21 C21           -0.5555    -1.2106     2.9320 C.ar    
  22 C22            2.9746     1.2185     0.1441 C.ar    
  23 C23            4.2442     1.6532     0.4683 C.ar    
  24 C24            4.7509     1.4457     1.7405 C.ar    
  25 C25            3.9946     0.8031     2.6990 C.ar    
  26 H26            0.2174     0.6142    -0.8569 H       
  27 H27           -1.1987    -1.5336     0.8812 H       
  28 H28           -2.1177    -0.2397     0.0753 H       
  29 H29           -1.2460    -1.0820    -2.0312 H       
  30 H30           -2.6938    -2.8692    -0.2220 H       
  31 H31           -3.4402    -1.4016    -2.7922 H       
  32 H32           -4.5461    -2.3771    -1.7954 H       
  33 H33           -3.8478    -0.8762    -1.1412 H       
  34 H34           -3.1231    -4.3339    -2.2177 H       
  35 H35           -1.9028    -3.4038    -3.1199 H       
  36 H36           -2.4725    -5.7882    -0.3856 H       
  37 H37           -0.6896    -7.1704     0.6011 H       
  38 H38            1.6639    -6.7476     0.0132 H       
  39 H39            2.2343    -4.9432    -1.5621 H       
  40 H40            0.4510    -3.5640    -2.5525 H       
  41 H41            2.5570    -0.6242     5.1421 H       
  42 H42            0.5874    -1.7702     6.0574 H       
  43 H43           -1.3949    -2.1512     4.6543 H       
  44 H44           -1.4289    -1.3805     2.3198 H       
  45 H45            2.5843     1.3821    -0.8495 H       
  46 H46            4.8454     2.1572    -0.2740 H       
  47 H47            5.7454     1.7893     1.9839 H       
  48 H48            4.3974     0.6456     3.6886 H       
@<TRIPOS>BOND
   1    1    2 2
   2    1   14 1
   3    1   17 1
   4    2    3 1
   5    2   26 1
   6    3    4 1
   7    3   27 1
   8    3   28 1
   9    4    5 1
  10    4   29 1
  11    5    6 1
  12    5    7 1
  13    5   30 1
  14    6   31 1
  15    6   32 1
  16    6   33 1
  17    7    8 1
  18    7   34 1
  19    7   35 1
  20    8    9 ar
  21    8   13 ar
  22    9   10 ar
  23    9   36 1
  24   10   11 ar
  25   10   37 1
  26   11   12 ar
  27   11   38 1
  28   12   13 ar
  29   12   39 1
  30   13   40 1
  31   14   15 ar
  32   14   22 ar
  33   15   16 1
  34   15   25 ar
  35   16   17 ar
  36   16   18 ar
  37   17   21 ar
  38   18   19 ar
  39   18   41 1
  40   19   20 ar
  41   19   42 1
  42   20   21 ar
  43   20   43 1
  44   21   44 1
  45   22   23 ar
  46   22   45 1
  47   23   24 ar
  48   23   46 1
  49   24   25 ar
  50   24   47 1
  51   25   48 1

#	End of record

