#	Name: ASD08830207
#	Creating user name:	WinNT
#	Creation time:	15. 06. 2019 21:20

#	Modifying user name:	WinNT
#	Modification time:	15. 06. 2019 21:20

#	Program:	/corina/corina34_cracker 3.40 0067  02.08.2006

@<TRIPOS>MOLECULE
ASD08830207
  48   51    0    0    0
SMALL
NO_CHARGES


@<TRIPOS>ATOM
   1 C1            -0.0441     1.4698    -0.0390 C.ar    
   2 C2            -0.0311     0.0008    -0.0375 C.2     
   3 C3            -1.3263    -0.7644    -0.1266 C.3     
   4 C4            -1.0340    -2.2661    -0.1058 C.3     
   5 N5            -2.2966    -3.0119    -0.1927 N.3     
   6 O6             1.0222    -0.5963     0.0355 O.2     
   7 C7            -1.2714     2.1589    -0.1182 C.ar    
   8 C8            -2.0484    -4.4440    -0.4139 C.3     
   9 C9            -3.3850    -5.1902    -0.4383 C.3     
  10 O10           -4.2232    -4.6236    -1.4490 O.3     
  11 C11           -4.4861    -3.2300    -1.2644 C.3     
  12 C12           -3.1607    -2.4639    -1.2483 C.3     
  13 C13            1.1527     2.1705     0.0433 C.ar    
  14 C14            1.1328     3.5713     0.0418 C.ar    
  15 C15           -0.1099     4.2523    -0.0438 C.ar    
  16 C16           -1.3074     3.5141    -0.1207 C.ar    
  17 C17            2.3270     4.3121     0.1245 C.ar    
  18 C18            2.2835     5.6701     0.1218 C.ar    
  19 C19            1.0617     6.3498     0.0381 C.ar    
  20 C20           -0.1270     5.6539    -0.0451 C.ar    
  21 N21            1.0464     7.7438     0.0383 N.pl3   
  22 C22            0.0445     8.4269    -0.6371 C.2     
  23 N23           -0.8713     7.8851    -1.3860 N.2     
  24 N24           -1.6877     8.9101    -1.8835 N.am    
  25 C25           -1.2140    10.0755    -1.3963 C.2     
  26 N26           -0.1490     9.7894    -0.6212 N.am    
  27 O27           -1.6689    11.1846    -1.6136 O.2     
  28 H28           -1.9601    -0.5058     0.7216 H       
  29 H29           -1.8375    -0.5066    -1.0542 H       
  30 H30           -0.4002    -2.5246    -0.9540 H       
  31 H31           -0.5228    -2.5239     0.8217 H       
  32 H32           -2.1939     1.6005    -0.1779 H       
  33 H33           -1.5371    -4.5819    -1.3666 H       
  34 H34           -1.4281    -4.8347     0.3928 H       
  35 H35           -3.2099    -6.2432    -0.6588 H       
  36 H36           -3.8717    -5.0970     0.5326 H       
  37 H37           -5.1074    -2.8653    -2.0823 H       
  38 H38           -5.0048    -3.0798    -0.3175 H       
  39 H39           -3.3523    -1.4092    -1.0508 H       
  40 H40           -2.6672    -2.5701    -2.2144 H       
  41 H41            2.0909     1.6396     0.1084 H       
  42 H42           -2.2548     4.0283    -0.1863 H       
  43 H43            3.2764     3.8017     0.1903 H       
  44 H44            3.2031     6.2328     0.1855 H       
  45 H45           -1.0647     6.1858    -0.1094 H       
  46 H46            1.7359     8.2363     0.5104 H       
  47 H47           -2.4525     8.8015    -2.4702 H       
  48 H48            0.3924    10.4342    -0.1394 H       
@<TRIPOS>BOND
   1    1    2 1
   2    1   13 ar
   3    1    7 ar
   4    2    3 1
   5    2    6 2
   6    3    4 1
   7    3   28 1
   8    3   29 1
   9    4    5 1
  10    4   30 1
  11    4   31 1
  12    5    8 1
  13    5   12 1
  14    7   16 ar
  15    7   32 1
  16    8    9 1
  17    8   33 1
  18    8   34 1
  19    9   10 1
  20    9   35 1
  21    9   36 1
  22   10   11 1
  23   11   12 1
  24   11   37 1
  25   11   38 1
  26   12   39 1
  27   12   40 1
  28   13   14 ar
  29   13   41 1
  30   14   15 ar
  31   14   17 ar
  32   15   16 ar
  33   15   20 ar
  34   16   42 1
  35   17   18 ar
  36   17   43 1
  37   18   19 ar
  38   18   44 1
  39   19   20 ar
  40   19   21 1
  41   20   45 1
  42   21   22 1
  43   21   46 1
  44   22   23 2
  45   22   26 1
  46   23   24 1
  47   24   25 am
  48   24   47 1
  49   25   26 am
  50   25   27 2
  51   26   48 1

#	End of record

