#	Name: ASD03330374
#	Creating user name:	WinNT
#	Creation time:	15. 06. 2019 20:37

#	Modifying user name:	WinNT
#	Modification time:	15. 06. 2019 20:37

#	Program:	/corina/corina34_cracker 3.40 0067  02.08.2006

@<TRIPOS>MOLECULE
ASD03330374
  58   60    0    0    0
SMALL
NO_CHARGES


@<TRIPOS>ATOM
   1 C1             2.0092     3.1257     0.9664 C.3     
   2 N2             1.6920     1.6956     0.8478 N.3     
   3 C3             1.8810     1.2206    -0.5348 C.3     
   4 C4             3.2432     1.6682    -0.9982 C.2     
   5 N5             3.9791     2.6276    -0.3660 N.pl3   
   6 C6             3.5231     3.3357     0.8333 C.3     
   7 C7             3.9692     1.2424    -2.0615 C.2     
   8 N8             5.1314     1.9347    -2.0692 N.2     
   9 C9             5.1432     2.7675    -1.0525 C.2     
  10 C10            6.2398     3.7006    -0.7126 C.ar    
  11 C11            7.2362     3.9807    -1.6484 C.ar    
  12 C12            3.5648     0.2113    -3.0335 C.2     
  13 O13            2.4884    -0.3432    -2.9194 O.2     
  14 C14            3.9859    -1.1424    -5.0152 C.3     
  15 N15            4.3879    -0.1173    -4.0489 N.am    
  16 C16            0.3283     1.4181     1.3181 C.3     
  17 C17            8.2563     4.8514    -1.3260 C.ar    
  18 C18            8.2927     5.4471    -0.0765 C.ar    
  19 C19            7.3066     5.1729     0.8562 C.ar    
  20 C20            6.2785     4.3082     0.5428 C.ar    
  21 C21            4.7171    -0.9101    -6.3390 C.3     
  22 C22            0.0012    -0.0591     1.0908 C.3     
  23 O23            0.8794    -0.8678     1.8762 O.3     
  24 Cl24           9.5799     6.5415     0.3225 Cl      
  25 C25            4.3453    -2.5261    -4.4701 C.3     
  26 O26            5.7625    -2.6236    -4.3151 O.3     
  27 C27            6.2239    -0.8379    -6.0835 C.3     
  28 C28            4.4170    -2.0648    -7.2968 C.3     
  29 C29            4.2416     0.4047    -6.9603 C.3     
  30 H30            1.4963     3.6771     0.1784 H       
  31 H31            1.6768     3.4911     1.9381 H       
  32 H32            1.8217     0.1325    -0.5620 H       
  33 H33            1.1134     1.6484    -1.1797 H       
  34 H34            3.7398     4.3996     0.7371 H       
  35 H35            4.0287     2.9348     1.7118 H       
  36 H36            7.2090     3.5163    -2.6231 H       
  37 H37            2.9099    -1.0849    -5.1795 H       
  38 H38            5.2464     0.3249    -4.1399 H       
  39 H39            0.2571     1.6466     2.3815 H       
  40 H40           -0.3794     2.0361     0.7655 H       
  41 H41            9.0283     5.0687    -2.0493 H       
  42 H42            7.3400     5.6403     1.8292 H       
  43 H43            5.5099     4.0950     1.2709 H       
  44 H44           -1.0306    -0.2522     1.3847 H       
  45 H45            0.1300    -0.3017     0.0360 H       
  46 H46            0.7289    -1.8183     1.7816 H       
  47 H47            3.8632    -2.6723    -3.5035 H       
  48 H48            4.0025    -3.2913    -5.1665 H       
  49 H49            6.0629    -3.4765    -3.9724 H       
  50 H50            6.5984    -1.8312    -5.8361 H       
  51 H51            6.7270    -0.4724    -6.9787 H       
  52 H52            6.4196    -0.1587    -5.2537 H       
  53 H53            3.3435    -2.1163    -7.4788 H       
  54 H54            4.9378    -1.8993    -8.2399 H       
  55 H55            4.7557    -3.0015    -6.8542 H       
  56 H56            4.4554     1.2273    -6.2779 H       
  57 H57            4.7625     0.5702    -7.9034 H       
  58 H58            3.1681     0.3532    -7.1423 H       
@<TRIPOS>BOND
   1    1    2 1
   2    1    6 1
   3    1   30 1
   4    1   31 1
   5    2    3 1
   6    2   16 1
   7    3    4 1
   8    3   32 1
   9    3   33 1
  10    4    5 1
  11    4    7 2
  12    5    6 1
  13    5    9 1
  14    6   34 1
  15    6   35 1
  16    7    8 1
  17    7   12 1
  18    8    9 2
  19    9   10 1
  20   10   11 ar
  21   10   20 ar
  22   11   17 ar
  23   11   36 1
  24   12   13 2
  25   12   15 am
  26   14   15 1
  27   14   25 1
  28   14   21 1
  29   14   37 1
  30   15   38 1
  31   16   22 1
  32   16   39 1
  33   16   40 1
  34   17   18 ar
  35   17   41 1
  36   18   19 ar
  37   18   24 1
  38   19   20 ar
  39   19   42 1
  40   20   43 1
  41   21   27 1
  42   21   28 1
  43   21   29 1
  44   22   23 1
  45   22   44 1
  46   22   45 1
  47   23   46 1
  48   25   26 1
  49   25   47 1
  50   25   48 1
  51   26   49 1
  52   27   50 1
  53   27   51 1
  54   27   52 1
  55   28   53 1
  56   28   54 1
  57   28   55 1
  58   29   56 1
  59   29   57 1
  60   29   58 1

#	End of record

