#	Name: ASD01148011
#	Creating user name:	WinNT
#	Creation time:	15. 06. 2019 19:01

#	Modifying user name:	WinNT
#	Modification time:	15. 06. 2019 19:01

#	Program:	/corina/corina34_cracker 3.40 0067  02.08.2006

@<TRIPOS>MOLECULE
ASD01148011
  73   77    0    0    0
SMALL
NO_CHARGES


@<TRIPOS>ATOM
   1 C1            -0.0989     1.8001     0.0692 C.3     
   2 C2            -0.3590     0.2927     0.1978 C.3     
   3 C3             0.9104    -0.5288     0.3226 C.3     
   4 C4             1.8871    -0.2481    -0.8179 C.3     
   5 C5             2.0429     1.2142    -1.0730 C.3     
   6 C6             1.3757     2.1014     0.0002 C.3     
   7 C7             3.4536     1.8184    -1.1210 C.3     
   8 C8             3.1113     3.3370    -1.2149 C.3     
   9 C9             1.7258     3.5061    -0.5410 C.3     
  10 C10            0.6123    -2.0341     0.3671 C.3     
  11 C11            1.4594    -2.7505    -0.6819 C.3     
  12 C12            2.9456    -2.4723    -0.4746 C.3     
  13 C13            3.2082    -0.9619    -0.5352 C.3     
  14 C14           -0.8669    -2.2888     0.0812 C.3     
  15 C15           -1.1594    -3.7901     0.0981 C.3     
  16 C16           -0.2911    -4.5088    -0.9345 C.3     
  17 C17            1.1897    -4.2556    -0.6405 C.3     
  18 C18            0.9545    -2.5361     1.7731 C.3     
  19 C19           -0.5696    -6.0128    -0.8741 C.3     
  20 C20            2.0354     1.9983     1.3732 C.3     
  21 C21            1.8107     4.4833     0.6030 C.2     
  22 N22            0.8453     5.3239     0.9826 N.2     
  23 C23            2.8742     4.6508     1.4192 C.2     
  24 N24            2.5439     5.6283     2.3180 N.pl3   
  25 C25            1.2678     6.0313     2.0209 C.2     
  26 C26            3.2243     6.1963     3.3559 C.2     
  27 C27            2.6543     7.1649     4.1030 C.2     
  28 C28            1.3493     7.6017     3.8213 C.2     
  29 C29            0.6584     7.0410     2.7925 C.2     
  30 H30           -0.5946     2.1793    -0.8347 H       
  31 H31           -0.5407     2.3195     0.9307 H       
  32 H32           -0.9911     0.1175     1.0787 H       
  33 H33           -0.9240    -0.0403    -0.6827 H       
  34 H34            1.3941    -0.3195     1.2816 H       
  35 H35            1.4655    -0.6956    -1.7399 H       
  36 H36            1.5608     1.4445    -2.0516 H       
  37 H37            4.0354     1.5942    -0.2393 H       
  38 H38            3.9751     1.4975    -2.0245 H       
  39 H39            3.8614     3.9187    -0.6836 H       
  40 H40            3.0602     3.6390    -2.2591 H       
  41 H41            0.9796     3.8137    -1.2656 H       
  42 H42            1.1683    -2.3928    -1.6787 H       
  43 H43            3.2830    -2.8676     0.4798 H       
  44 H44            3.5143    -2.9595    -1.2743 H       
  45 H45            3.9190    -0.7480    -1.3325 H       
  46 H46            3.6117    -0.6244     0.4185 H       
  47 H47           -1.4757    -1.7964     0.8409 H       
  48 H48           -1.1217    -1.8882    -0.9020 H       
  49 H49           -0.9840    -4.2057     1.0863 H       
  50 H50           -2.2134    -3.9455    -0.1594 H       
  51 H51           -0.5306    -4.1379    -1.9317 H       
  52 H52            1.7915    -4.7439    -1.4142 H       
  53 H53            1.4570    -4.6731     0.3241 H       
  54 H54            0.3449    -2.0074     2.5060 H       
  55 H55            0.7528    -3.6054     1.8363 H       
  56 H56            2.0093    -2.3526     1.9778 H       
  57 H57           -1.6217    -6.1965    -1.0919 H       
  58 H58            0.0489    -6.5267    -1.6099 H       
  59 H59           -0.3344    -6.3862     0.1226 H       
  60 H60            3.0405     2.4173     1.3258 H       
  61 H61            1.4448     2.5526     2.1027 H       
  62 H62            2.0919     0.9514     1.6715 H       
  63 H63            3.8099     4.1136     1.3714 H       
  64 H64            4.2279     5.8674     3.5815 H       
  65 H65            3.2039     7.6059     4.9215 H       
  66 H66            0.8952     8.3765     4.4213 H       
  67 H67           -0.3454     7.3692     2.5666 H       
  68 C68            9.7551    15.1885    10.8045 C.3     
  69 O69            9.7745    13.7597    10.7967 O.3     
  70 H70           10.7777    15.5658    10.7968 H       
  71 H71            9.2279    15.5496     9.9215 H       
  72 H72            9.2449    15.5400    11.7013 H       
  73 H73           10.2141    13.3765    10.0253 H       
@<TRIPOS>BOND
   1    1    2 1
   2    1    6 1
   3    1   30 1
   4    1   31 1
   5    2    3 1
   6    2   32 1
   7    2   33 1
   8    3    4 1
   9    3   10 1
  10    3   34 1
  11    4    5 1
  12    4   13 1
  13    4   35 1
  14    5    6 1
  15    5    7 1
  16    5   36 1
  17    6   20 1
  18    6    9 1
  19    7    8 1
  20    7   37 1
  21    7   38 1
  22    8    9 1
  23    8   39 1
  24    8   40 1
  25    9   21 1
  26    9   41 1
  27   10   14 1
  28   10   18 1
  29   10   11 1
  30   11   12 1
  31   11   17 1
  32   11   42 1
  33   12   13 1
  34   12   43 1
  35   12   44 1
  36   13   45 1
  37   13   46 1
  38   14   15 1
  39   14   47 1
  40   14   48 1
  41   15   16 1
  42   15   49 1
  43   15   50 1
  44   16   17 1
  45   16   19 1
  46   16   51 1
  47   17   52 1
  48   17   53 1
  49   18   54 1
  50   18   55 1
  51   18   56 1
  52   19   57 1
  53   19   58 1
  54   19   59 1
  55   20   60 1
  56   20   61 1
  57   20   62 1
  58   21   22 1
  59   21   23 2
  60   22   25 2
  61   23   24 1
  62   23   63 1
  63   24   25 1
  64   24   26 1
  65   25   29 1
  66   26   27 2
  67   26   64 1
  68   27   28 1
  69   27   65 1
  70   28   29 2
  71   28   66 1
  72   29   67 1
  73   68   69 1
  74   68   70 1
  75   68   71 1
  76   68   72 1
  77   69   73 1

#	End of record

