#	Name: ASD01883839
#	Creating user name:	WinNT
#	Creation time:	15. 06. 2019 19:47

#	Modifying user name:	WinNT
#	Modification time:	15. 06. 2019 19:47

#	Program:	/corina/corina34_cracker 3.40 0067  02.08.2006

@<TRIPOS>MOLECULE
ASD01883839
  41   44    0    0    0
SMALL
NO_CHARGES


@<TRIPOS>ATOM
   1 C1             2.5617     1.3355     0.3969 C.ar    
   2 C2             2.3985    -0.0084     0.1178 C.ar    
   3 C3             1.7354    -0.8251     1.0145 C.ar    
   4 C4             1.2359    -0.2978     2.1907 C.ar    
   5 C5             1.3999     1.0460     2.4703 C.ar    
   6 C6             2.0618     1.8629     1.5728 C.ar    
   7 C7             2.2400     3.3280     1.8774 C.3     
   8 O8             1.1297     4.0614     1.3564 O.3     
   9 C9             1.0818     5.3887     1.6367 C.2     
  10 C10            1.1400     7.6770     0.9462 C.2     
  11 C11            1.1924     6.3076     0.6317 C.2     
  12 C12            0.9116     5.8271     2.9663 C.2     
  13 C13            0.8632     7.1446     3.2469 C.2     
  14 N14            1.1128     9.8088     0.9870 N.2     
  15 N15            1.2155     8.7812     0.2195 N.2     
  16 N16            0.9779     8.0709     2.2521 N.pl3   
  17 C17            0.9663     9.4340     2.2307 C.2     
  18 C18            1.3691     5.8590    -0.7961 C.3     
  19 C19            0.8130    10.3427     3.4231 C.3     
  20 C20           -0.6709    10.6353     3.6540 C.3     
  21 C21           -1.0459    11.4493     4.8940 C.3     
  22 C22           -1.1365    12.0851     3.5053 C.3     
  23 F23            1.5194     4.4686    -0.8328 F       
  24 F24            0.2446     6.2264    -1.5428 F       
  25 F25            2.5073     6.4655    -1.3380 F       
  26 H26            3.0837     1.9727    -0.3017 H       
  27 H27            2.7888    -0.4204    -0.8012 H       
  28 H28            1.6073    -1.8750     0.7961 H       
  29 H29            0.7172    -0.9357     2.8910 H       
  30 H30            1.0093     1.4580     3.3890 H       
  31 H31            2.2955     3.4707     2.9566 H       
  32 H32            3.1605     3.6857     1.4158 H       
  33 H33            0.8192     5.1040     3.7631 H       
  34 H34            0.7322     7.4698     4.2685 H       
  35 H35            1.2292     9.8572     4.3058 H       
  36 H36            1.3431    11.2770     3.2385 H       
  37 H37           -1.3592     9.8506     3.3399 H       
  38 H38           -1.9811    11.2004     5.3956 H       
  39 H39           -0.2354    11.7764     5.5454 H       
  40 H40           -0.3857    12.8305     3.2431 H       
  41 H41           -2.1313    12.2545     3.0933 H       
@<TRIPOS>BOND
   1    1    2 ar
   2    1    6 ar
   3    1   26 1
   4    2    3 ar
   5    2   27 1
   6    3    4 ar
   7    3   28 1
   8    4    5 ar
   9    4   29 1
  10    5    6 ar
  11    5   30 1
  12    6    7 1
  13    7    8 1
  14    7   31 1
  15    7   32 1
  16    8    9 1
  17    9   12 1
  18    9   11 2
  19   10   11 1
  20   10   16 1
  21   10   15 2
  22   11   18 1
  23   12   13 2
  24   12   33 1
  25   13   16 1
  26   13   34 1
  27   14   15 1
  28   14   17 2
  29   16   17 1
  30   17   19 1
  31   18   23 1
  32   18   24 1
  33   18   25 1
  34   19   20 1
  35   19   35 1
  36   19   36 1
  37   20   21 1
  38   20   22 1
  39   20   37 1
  40   21   22 1
  41   21   38 1
  42   21   39 1
  43   22   40 1
  44   22   41 1

#	End of record

