#	Name: ASD02508097
#	Creating user name:	WinNT
#	Creation time:	15. 06. 2019 20:23

#	Modifying user name:	WinNT
#	Modification time:	15. 06. 2019 20:23

#	Program:	/corina/corina34_cracker 3.40 0067  02.08.2006

@<TRIPOS>MOLECULE
ASD02508097
  43   45    0    0    0
SMALL
NO_CHARGES


@<TRIPOS>ATOM
   1 C1            -0.0170     1.3988     0.0097 C.ar    
   2 C2             0.0021    -0.0041     0.0020 C.ar    
   3 C3             1.2103     2.0632     0.0016 C.ar    
   4 C4             2.4081     1.3725    -0.0136 C.ar    
   5 C5             2.4055    -0.0151    -0.0210 C.ar    
   6 C6             1.1918    -0.6929    -0.0126 C.ar    
   7 N7            -1.1215     2.2356     0.0192 N.am    
   8 C8            -0.9230     3.5571     0.0255 C.2     
   9 S9             0.8327     3.7915     0.0145 S.3     
  10 N10            3.6114    -0.7244    -0.0368 N.am    
  11 S11            4.2475    -1.2442    -1.4747 S.o2    
  12 C12            5.2964     0.0381    -2.0749 C.ar    
  13 C13            4.7570     1.2646    -2.4351 C.ar    
  14 O14           -1.7766     4.4249     0.0341 O.2     
  15 O15            5.0937    -2.3430    -1.1652 O.2     
  16 O16            3.1605    -1.3328    -2.3856 O.2     
  17 C17           -2.4784     1.6831     0.0217 C.3     
  18 C18            6.6568    -0.1753    -2.1819 C.ar    
  19 C19            7.4810     0.8315    -2.6533 C.ar    
  20 C20            6.9444     2.0532    -3.0183 C.ar    
  21 C21            5.5847     2.2724    -2.9073 C.ar    
  22 O22            3.4191     1.4781    -2.3257 O.3     
  23 C23            2.9336     2.7646    -2.7145 C.3     
  24 Cl24           9.1907     0.5612    -2.7862 Cl      
  25 C25            4.3113    -1.0072     1.2187 C.3     
  26 C26            1.1801    -2.1999    -0.0206 C.3     
  27 H27           -0.9298    -0.5499     0.0080 H       
  28 H28            3.3438     1.9119    -0.0200 H       
  29 H29           -2.8106     1.5402     1.0500 H       
  30 H30           -3.1527     2.3733    -0.4853 H       
  31 H31           -2.4814     0.7248    -0.4976 H       
  32 H32            7.0777    -1.1283    -1.8971 H       
  33 H33            7.5892     2.8378    -3.3856 H       
  34 H34            5.1660     3.2261    -3.1928 H       
  35 H35            1.8528     2.8015    -2.5781 H       
  36 H36            3.4039     3.5317    -2.0993 H       
  37 H37            3.1737     2.9419    -3.7629 H       
  38 H38            3.9668    -1.9603     1.6200 H       
  39 H39            5.3842    -1.0577     1.0331 H       
  40 H40            4.1038    -0.2141     1.9370 H       
  41 H41            1.1875    -2.5687     1.0051 H       
  42 H42            0.2823    -2.5535    -0.5274 H       
  43 H43            2.0621    -2.5673    -0.5452 H       
@<TRIPOS>BOND
   1    1    2 ar
   2    1    3 ar
   3    1    7 1
   4    2    6 ar
   5    2   27 1
   6    3    4 ar
   7    3    9 1
   8    4    5 ar
   9    4   28 1
  10    5    6 ar
  11    5   10 1
  12    6   26 1
  13    7    8 am
  14    7   17 1
  15    8    9 1
  16    8   14 2
  17   10   11 am
  18   10   25 1
  19   11   12 1
  20   11   15 2
  21   11   16 2
  22   12   13 ar
  23   12   18 ar
  24   13   22 1
  25   13   21 ar
  26   17   29 1
  27   17   30 1
  28   17   31 1
  29   18   19 ar
  30   18   32 1
  31   19   20 ar
  32   19   24 1
  33   20   21 ar
  34   20   33 1
  35   21   34 1
  36   22   23 1
  37   23   35 1
  38   23   36 1
  39   23   37 1
  40   25   38 1
  41   25   39 1
  42   25   40 1
  43   26   41 1
  44   26   42 1
  45   26   43 1

#	End of record

