#	Name: ASD01200194
#	Creating user name:	WinNT
#	Creation time:	15. 06. 2019 19:08

#	Modifying user name:	WinNT
#	Modification time:	15. 06. 2019 19:08

#	Program:	/corina/corina34_cracker 3.40 0067  02.08.2006

@<TRIPOS>MOLECULE
ASD01200194
  54   56    0    0    0
SMALL
NO_CHARGES


@<TRIPOS>ATOM
   1 C1             0.1453     1.4453    -0.4273 C.2     
   2 C2             0.0874    -0.0606    -0.4158 C.3     
   3 O3             1.2000     2.0130    -0.2373 O.2     
   4 N4            -0.9740     2.1609    -0.6543 N.am    
   5 C5            -0.9421     3.5518    -0.5648 C.ar    
   6 C6            -2.0708     4.2898    -0.9034 C.ar    
   7 C7            -2.0256     5.6695    -0.8100 C.ar    
   8 C8            -0.8481     6.2660    -0.3795 C.ar    
   9 C9             0.2346     5.4712    -0.0597 C.ar    
  10 N10            0.1604     4.1572    -0.1533 N.ar    
  11 S11            1.4526    -0.7105     0.5864 S.3     
  12 N12            2.2995    -3.2432     0.9794 N.am    
  13 C13            1.0776    -2.4825     0.6868 C.3     
  14 C14            0.1382    -2.7520     1.8392 C.2     
  15 C15            0.7713    -3.5698     2.6740 C.2     
  16 C16            2.1062    -3.8780     2.1507 C.2     
  17 O17            2.9188    -4.6010     2.6946 O.2     
  18 C18            0.2030    -4.1005     3.9649 C.3     
  19 C19           -1.2528    -2.1979     2.0100 C.3     
  20 C20            3.5037    -3.3048     0.1472 C.3     
  21 C21            4.4501    -2.2037     0.5509 C.ar    
  22 C22            5.3966    -2.4326     1.5325 C.ar    
  23 C23            6.2654    -1.4250     1.9044 C.ar    
  24 C24            6.1876    -0.1826     1.2920 C.ar    
  25 C25            5.2370     0.0446     0.3074 C.ar    
  26 C26            4.3742    -0.9681    -0.0648 C.ar    
  27 O27            7.0408     0.8105     1.6564 O.3     
  28 C28            6.9030     2.0636     0.9835 C.3     
  29 C29            0.2101    -0.5866    -1.8472 C.3     
  30 H30           -0.8622    -0.3844     0.0102 H       
  31 H31           -1.8017     1.7083    -0.8800 H       
  32 H32           -2.9705     3.7928    -1.2350 H       
  33 H33           -2.8866     6.2688    -1.0665 H       
  34 H34           -0.7797     7.3406    -0.2960 H       
  35 H35            1.1528     5.9307     0.2754 H       
  36 H36            0.6348    -2.8272    -0.2477 H       
  37 H37           -0.3184    -5.0385     3.7740 H       
  38 H38            1.0121    -4.2725     4.6747 H       
  39 H39           -0.4960    -3.3742     4.3798 H       
  40 H40           -1.9782    -2.9092     1.6150 H       
  41 H41           -1.4491    -2.0289     3.0687 H       
  42 H42           -1.3372    -1.2550     1.4697 H       
  43 H43            3.9904    -4.2705     0.2835 H       
  44 H44            3.2282    -3.1813    -0.9001 H       
  45 H45            5.4566    -3.3999     2.0092 H       
  46 H46            7.0043    -1.6042     2.6714 H       
  47 H47            5.1744     1.0109    -0.1707 H       
  48 H48            3.6372    -0.7933    -0.8346 H       
  49 H49            7.6426     2.7658     1.3682 H       
  50 H50            7.0592     1.9209    -0.0858 H       
  51 H51            5.9022     2.4599     1.1548 H       
  52 H52            1.1598    -0.2628    -2.2732 H       
  53 H53            0.1683    -1.6758    -1.8389 H       
  54 H54           -0.6102    -0.1961    -2.4494 H       
@<TRIPOS>BOND
   1    1    2 1
   2    1    3 2
   3    1    4 am
   4    2   11 1
   5    2   29 1
   6    2   30 1
   7    4    5 1
   8    4   31 1
   9    5    6 ar
  10    5   10 ar
  11    6    7 ar
  12    6   32 1
  13    7    8 ar
  14    7   33 1
  15    8    9 ar
  16    8   34 1
  17    9   10 ar
  18    9   35 1
  19   11   13 1
  20   12   13 1
  21   12   16 am
  22   12   20 1
  23   13   14 1
  24   13   36 1
  25   14   15 2
  26   14   19 1
  27   15   16 1
  28   15   18 1
  29   16   17 2
  30   18   37 1
  31   18   38 1
  32   18   39 1
  33   19   40 1
  34   19   41 1
  35   19   42 1
  36   20   21 1
  37   20   43 1
  38   20   44 1
  39   21   22 ar
  40   21   26 ar
  41   22   23 ar
  42   22   45 1
  43   23   24 ar
  44   23   46 1
  45   24   25 ar
  46   24   27 1
  47   25   26 ar
  48   25   47 1
  49   26   48 1
  50   27   28 1
  51   28   49 1
  52   28   50 1
  53   28   51 1
  54   29   52 1
  55   29   53 1
  56   29   54 1

#	End of record

