#	Name: ASD01884259
#	Creating user name:	WinNT
#	Creation time:	15. 06. 2019 19:47

#	Modifying user name:	WinNT
#	Modification time:	15. 06. 2019 19:47

#	Program:	/corina/corina34_cracker 3.40 0067  02.08.2006

@<TRIPOS>MOLECULE
ASD01884259
  59   62    0    0    0
SMALL
NO_CHARGES


@<TRIPOS>ATOM
   1 C1            -0.0169     1.3920     0.0097 C.ar    
   2 C2             0.0021    -0.0041     0.0020 C.ar    
   3 C3            -1.1683    -0.7205     0.0094 C.ar    
   4 C4            -2.4132    -0.0698     0.0252 C.ar    
   5 C5            -2.4165     1.3273     0.0332 C.ar    
   6 C6            -1.2432     2.0548     0.0308 C.ar    
   7 N7            -3.6703    -0.6444     0.0347 N.am    
   8 C8            -4.7412     0.1548     0.0501 C.2     
   9 S9            -4.1177     1.8129     0.0532 S.3     
  10 C10            1.2502     2.1592     0.0017 C.ar    
  11 O11           -5.9092    -0.1874     0.0596 O.2     
  12 C12           -3.8257    -2.1011     0.0275 C.3     
  13 C13           -3.8650    -2.6170     1.4674 C.3     
  14 C14           -3.9017    -4.1469     1.4600 C.3     
  15 C15           -3.9060    -4.6605     2.9033 C.3     
  16 N16           -5.0217    -4.0336     3.6250 N.am    
  17 C17           -5.1325    -2.5686     3.6193 C.3     
  18 C18           -5.1144    -2.0784     2.1680 C.3     
  19 C19            2.2694     1.8523     0.9219 C.ar    
  20 C20            3.4579     2.5841     0.9024 C.ar    
  21 C21            3.6264     3.5999    -0.0149 C.ar    
  22 C22            2.6220     3.9011    -0.9204 C.ar    
  23 C23            1.4423     3.1849    -0.9202 C.ar    
  24 C24            2.0885     0.7966     1.8723 C.1     
  25 N25            1.9449    -0.0409     2.6263 N.1     
  26 O26           -6.9440    -4.2003     4.9367 O.3     
  27 C27           -7.8807    -5.0750     5.6194 C.3     
  28 C28           -7.1349    -5.9004     6.6698 C.3     
  29 C29           -8.9589    -4.2326     6.3039 C.3     
  30 C30           -8.5351    -6.0135     4.6036 C.3     
  31 C31           -5.9265    -4.7881     4.2795 C.2     
  32 O32           -5.8241    -5.9989     4.2764 O.2     
  33 H33            0.9477    -0.5256    -0.0102 H       
  34 H34           -1.1319    -1.7999     0.0025 H       
  35 H35           -1.2753     3.1343     0.0372 H       
  36 H36           -4.7544    -2.3650    -0.4785 H       
  37 H37           -2.9846    -2.5536    -0.4978 H       
  38 H38           -2.9760    -2.2776     1.9990 H       
  39 H39           -4.8032    -4.4868     0.9502 H       
  40 H40           -3.0232    -4.5294     0.9404 H       
  41 H41           -4.0317    -5.7432     2.9054 H       
  42 H42           -2.9649    -4.3989     3.3870 H       
  43 H43           -6.0675    -2.2710     4.0938 H       
  44 H44           -4.2914    -2.1364     4.1614 H       
  45 H45           -5.0991    -0.9886     2.1522 H       
  46 H46           -6.0045    -2.4377     1.6515 H       
  47 H47            4.2450     2.3550     1.6055 H       
  48 H48            4.5470     4.1645    -0.0273 H       
  49 H49            2.7649     4.6990    -1.6341 H       
  50 H50            0.6644     3.4258    -1.6296 H       
  51 H51           -6.6687    -5.2317     7.3935 H       
  52 H52           -7.8381    -6.5570     7.1823 H       
  53 H53           -6.3667    -6.5005     6.1821 H       
  54 H54           -9.4902    -3.6446     5.5556 H       
  55 H55           -9.6621    -4.8892     6.8164 H       
  56 H56           -8.4927    -3.5640     7.0276 H       
  57 H57           -7.7669    -6.6136     4.1159 H       
  58 H58           -9.2382    -6.6701     5.1160 H       
  59 H59           -9.0663    -5.4255     3.8552 H       
@<TRIPOS>BOND
   1    1    2 ar
   2    1   10 1
   3    1    6 ar
   4    2    3 ar
   5    2   33 1
   6    3    4 ar
   7    3   34 1
   8    4    5 ar
   9    4    7 1
  10    5    6 ar
  11    5    9 1
  12    6   35 1
  13    7    8 am
  14    7   12 1
  15    8    9 1
  16    8   11 2
  17   10   19 ar
  18   10   23 ar
  19   12   13 1
  20   12   36 1
  21   12   37 1
  22   13   14 1
  23   13   18 1
  24   13   38 1
  25   14   15 1
  26   14   39 1
  27   14   40 1
  28   15   16 1
  29   15   41 1
  30   15   42 1
  31   16   17 1
  32   16   31 am
  33   17   18 1
  34   17   43 1
  35   17   44 1
  36   18   45 1
  37   18   46 1
  38   19   20 ar
  39   19   24 1
  40   20   21 ar
  41   20   47 1
  42   21   22 ar
  43   21   48 1
  44   22   23 ar
  45   22   49 1
  46   23   50 1
  47   24   25 3
  48   26   27 1
  49   26   31 1
  50   27   28 1
  51   27   29 1
  52   27   30 1
  53   28   51 1
  54   28   52 1
  55   28   53 1
  56   29   54 1
  57   29   55 1
  58   29   56 1
  59   30   57 1
  60   30   58 1
  61   30   59 1
  62   31   32 2

#	End of record

