#	Name: ASD05430144
#	Creating user name:	WinNT
#	Creation time:	15. 06. 2019 20:59

#	Modifying user name:	WinNT
#	Modification time:	15. 06. 2019 20:59

#	Program:	/corina/corina34_cracker 3.40 0067  02.08.2006

@<TRIPOS>MOLECULE
ASD05430144
  61   67    0    0    0
SMALL
NO_CHARGES


@<TRIPOS>ATOM
   1 C1             0.0536     1.3318    -0.6749 C.ar    
   2 C2             0.0193    -0.0135    -0.3149 C.ar    
   3 C3             1.1711    -0.6436     0.1348 C.ar    
   4 C4             2.3606     0.0512     0.2310 C.ar    
   5 C5             2.4186     1.3997    -0.1237 C.ar    
   6 C6             1.2524     2.0486    -0.5825 C.ar    
   7 O7             4.9027     0.1075    -0.0822 O.3     
   8 C8             4.8532     1.4659     0.0675 C.2     
   9 C9             3.6837     2.1380    -0.0202 C.2     
  10 C10            6.1787    -0.4529    -0.4086 C.3     
  11 C11            7.1533     0.4864    -1.1313 C.3     
  12 N12            7.2519     1.7251    -0.3562 N.pl3   
  13 C13            6.1235     2.1719     0.3289 C.2     
  14 C14            8.4256     3.6263    -1.3044 C.ar    
  15 C15            9.5526     3.9573    -2.0335 C.ar    
  16 C16            9.4992     4.9774    -2.9643 C.ar    
  17 C17            8.3162     5.6680    -3.1666 C.ar    
  18 C18            7.1881     5.3356    -2.4358 C.ar    
  19 C19            7.2440     4.3151    -1.5056 C.ar    
  20 N20           -1.1806    -0.7317    -0.4066 N.pl3   
  21 C21           -1.3583    -1.9471    -1.0154 C.2     
  22 C22           -2.6576    -2.2699    -0.8700 C.2     
  23 N23           -3.2611    -1.2825    -0.1919 N.2     
  24 C24           -2.3858    -0.3579     0.0960 C.2     
  25 C25           -3.3193    -3.5237    -1.3812 C.3     
  26 N26            6.2043     3.1503     1.1703 N.2     
  27 C27           -0.2746     3.3889    -1.3192 C.2     
  28 O28           -0.8714     2.2001    -1.1409 O.3     
  29 C29            8.4836     2.5096    -0.2941 C.3     
  30 C30            8.6127     3.0956     1.1162 C.3     
  31 O31            7.4221     3.7952     1.4638 O.3     
  32 F32            8.2629     6.6657    -4.0760 F       
  33 C33            8.8465     1.9626     2.1174 C.3     
  34 O34            9.0830     2.5141     3.4143 O.3     
  35 C35            6.7752    -1.4667     0.5687 C.3     
  36 C36            6.2251    -1.9354    -0.7800 C.3     
  37 N37            0.9819     3.3133    -0.9935 N.2     
  38 H38            1.1367    -1.6867     0.4124 H       
  39 H39            3.2497    -0.4511     0.5825 H       
  40 H40            3.6798     3.2180    -0.0142 H       
  41 H41            8.1344     0.0165    -1.2003 H       
  42 H42            6.7790     0.7067    -2.1310 H       
  43 H43           10.4753     3.4188    -1.8752 H       
  44 H44           10.3798     5.2361    -3.5334 H       
  45 H45            6.2649     5.8735    -2.5928 H       
  46 H46            6.3642     4.0556    -0.9355 H       
  47 H47           -0.6015    -2.5332    -1.5157 H       
  48 H48           -2.5876     0.5547     0.6370 H       
  49 H49           -3.2617    -4.3014    -0.6197 H       
  50 H50           -4.3646    -3.3156    -1.6097 H       
  51 H51           -2.8102    -3.8609    -2.2841 H       
  52 H52           -0.7659     4.2786    -1.6844 H       
  53 H53            9.3389     1.8675    -0.5046 H       
  54 H54            9.4580     3.7831     1.1463 H       
  55 H55            7.9668     1.3198     2.1507 H       
  56 H56            9.7125     1.3774     1.8081 H       
  57 H57            9.2396     1.8515     4.1009 H       
  58 H58            7.8576    -1.4648     0.6976 H       
  59 H59            6.1958    -1.7078     1.4599 H       
  60 H60            5.2837    -2.4849    -0.7761 H       
  61 H61            6.9455    -2.2419    -1.5384 H       
@<TRIPOS>BOND
   1    1    2 ar
   2    1    6 ar
   3    1   28 1
   4    2    3 ar
   5    2   20 1
   6    3    4 ar
   7    3   38 1
   8    4    5 ar
   9    4   39 1
  10    5    6 ar
  11    5    9 1
  12    6   37 1
  13    7    8 1
  14    7   10 1
  15    8    9 2
  16    8   13 1
  17    9   40 1
  18   10   11 1
  19   10   35 1
  20   10   36 1
  21   11   12 1
  22   11   41 1
  23   11   42 1
  24   12   13 1
  25   12   29 1
  26   13   26 2
  27   14   15 ar
  28   14   19 ar
  29   14   29 1
  30   15   16 ar
  31   15   43 1
  32   16   17 ar
  33   16   44 1
  34   17   18 ar
  35   17   32 1
  36   18   19 ar
  37   18   45 1
  38   19   46 1
  39   20   21 1
  40   20   24 1
  41   21   22 2
  42   21   47 1
  43   22   23 1
  44   22   25 1
  45   23   24 2
  46   24   48 1
  47   25   49 1
  48   25   50 1
  49   25   51 1
  50   26   31 1
  51   27   28 1
  52   27   37 2
  53   27   52 1
  54   29   30 1
  55   29   53 1
  56   30   31 1
  57   30   33 1
  58   30   54 1
  59   33   34 1
  60   33   55 1
  61   33   56 1
  62   34   57 1
  63   35   36 1
  64   35   58 1
  65   35   59 1
  66   36   60 1
  67   36   61 1

#	End of record

