#	Name: ASD00170299
#	Creating user name:	WinNT
#	Creation time:	15. 06. 2019 18:31

#	Modifying user name:	WinNT
#	Modification time:	15. 06. 2019 18:31

#	Program:	/corina/corina34_cracker 3.40 0067  02.08.2006

@<TRIPOS>MOLECULE
ASD00170299
  32   34    0    0    0
SMALL
NO_CHARGES


@<TRIPOS>ATOM
   1 S1             0.1576     1.6248     0.6732 S.3     
   2 N2            -0.1178     0.3150    -0.3760 N.pl3   
   3 C3             1.1096    -0.1394    -0.7262 C.2     
   4 N4             2.1486     0.4583    -0.2380 N.2     
   5 C5             1.9247     1.4944     0.5873 C.2     
   6 N6             2.8188     2.2464     1.1974 N.2     
   7 C7            -1.3529    -0.1881    -0.7901 C.ar    
   8 C8             1.2584    -1.2899    -1.6430 C.ar    
   9 C9             4.2478     1.9872     1.0051 C.3     
  10 C10           -2.2260     0.6166    -1.5121 C.ar    
  11 C11           -3.4465     0.1157    -1.9200 C.ar    
  12 C12           -3.8003    -1.1851    -1.6108 C.ar    
  13 C13           -2.9340    -1.9886    -0.8921 C.ar    
  14 C14           -1.7093    -1.4965    -0.4863 C.ar    
  15 C15            0.2894    -1.5409    -2.6156 C.ar    
  16 C16            0.4345    -2.6157    -3.4682 C.ar    
  17 C17            1.5376    -3.4439    -3.3607 C.ar    
  18 C18            2.5015    -3.2009    -2.3984 C.ar    
  19 C19            2.3713    -2.1261    -1.5433 C.ar    
  20 H20            4.4819     0.9764     1.3393 H       
  21 H21            4.4964     2.0873    -0.0514 H       
  22 H22            4.8285     2.7050     1.5845 H       
  23 H23           -1.9506     1.6325    -1.7536 H       
  24 H24           -4.1258     0.7406    -2.4808 H       
  25 H25           -4.7555    -1.5742    -1.9311 H       
  26 H26           -3.2138    -3.0037    -0.6519 H       
  27 H27           -1.0333    -2.1245     0.0750 H       
  28 H28           -0.5722    -0.8953    -2.7004 H       
  29 H29           -0.3147    -2.8113    -4.2211 H       
  30 H30            1.6465    -4.2840    -4.0306 H       
  31 H31            3.3599    -3.8516    -2.3192 H       
  32 H32            3.1247    -1.9372    -0.7928 H       
@<TRIPOS>BOND
   1    1    2 1
   2    1    5 1
   3    2    3 1
   4    2    7 1
   5    3    4 2
   6    3    8 1
   7    4    5 1
   8    5    6 2
   9    6    9 1
  10    7   10 ar
  11    7   14 ar
  12    8   15 ar
  13    8   19 ar
  14    9   20 1
  15    9   21 1
  16    9   22 1
  17   10   11 ar
  18   10   23 1
  19   11   12 ar
  20   11   24 1
  21   12   13 ar
  22   12   25 1
  23   13   14 ar
  24   13   26 1
  25   14   27 1
  26   15   16 ar
  27   15   28 1
  28   16   17 ar
  29   16   29 1
  30   17   18 ar
  31   17   30 1
  32   18   19 ar
  33   18   31 1
  34   19   32 1

#	End of record

