#	Name: ASD03331487
#	Creating user name:	WinNT
#	Creation time:	15. 06. 2019 20:39

#	Modifying user name:	WinNT
#	Modification time:	15. 06. 2019 20:39

#	Program:	/corina/corina34_cracker 3.40 0067  02.08.2006

@<TRIPOS>MOLECULE
ASD03331487
  51   54    0    0    0
SMALL
NO_CHARGES


@<TRIPOS>ATOM
   1 C1            -0.0180     1.4748     0.0102 C.ar    
   2 C2             0.0021    -0.0041     0.0020 C.2     
   3 N3            -1.0181    -0.8128     0.3840 N.pl3   
   4 C4            -0.5953    -2.1067     0.2286 C.2     
   5 C5             0.6705    -2.0581    -0.2477 C.2     
   6 N6             1.0105    -0.7573    -0.3824 N.2     
   7 C7             1.5257    -3.2194    -0.5681 C.2     
   8 N8             1.1991    -4.4852    -0.4443 N.2     
   9 C9            -0.9795     2.1575     0.7558 C.ar    
  10 C10           -2.3503    -0.4534     0.8774 C.3     
  11 C11           -3.2492    -1.6923     0.7721 C.3     
  12 N12           -2.5782    -2.8490     1.3816 N.3     
  13 C13           -1.4466    -3.3065     0.5549 C.3     
  14 C14           -0.9932     3.5388     0.7601 C.ar    
  15 C15           -0.0530     4.2458     0.0240 C.ar    
  16 C16            0.9028     3.5707    -0.7178 C.ar    
  17 C17            0.9284     2.1917    -0.7234 C.ar    
  18 F18           -0.0699     5.5967     0.0304 F       
  19 F19           -1.9233     4.2021     1.4814 F       
  20 C20           -3.5293    -3.9421     1.6233 C.3     
  21 C21           -4.5679    -1.4272     1.5012 C.3     
  22 O22            2.7850    -3.1774    -1.0478 O.3     
  23 C23            3.1779    -4.4558    -1.1917 C.2     
  24 N24            2.1896    -5.2173    -0.8160 N.2     
  25 C25            4.5176    -4.9230    -1.6997 C.3     
  26 C26            4.3186    -5.7720    -2.9569 C.3     
  27 C27            5.3869    -3.7096    -2.0360 C.3     
  28 C28            5.2076    -5.7616    -0.6219 C.3     
  29 H29           -1.7117     1.6073     1.3281 H       
  30 H30           -2.2838    -0.1344     1.9176 H       
  31 H31           -2.7623     0.3527     0.2704 H       
  32 H32           -3.4532    -1.9037    -0.2776 H       
  33 H33           -1.8201    -3.7549    -0.3657 H       
  34 H34           -0.8570    -4.0370     1.1088 H       
  35 H35            1.6319     4.1255    -1.2896 H       
  36 H36            1.6744     1.6672    -1.3020 H       
  37 H37           -3.9728    -4.2537     0.6776 H       
  38 H38           -3.0066    -4.7854     2.0748 H       
  39 H39           -4.3143    -3.5984     2.2970 H       
  40 H40           -5.0698    -0.5737     1.0455 H       
  41 H41           -5.2073    -2.3068     1.4270 H       
  42 H42           -4.3660    -1.2122     2.5505 H       
  43 H43            3.8270    -5.1745    -3.7247 H       
  44 H44            5.2876    -6.1099    -3.3243 H       
  45 H45            3.6993    -6.6364    -2.7172 H       
  46 H46            5.5287    -3.1048    -1.1404 H       
  47 H47            6.3559    -4.0475    -2.4034 H       
  48 H48            4.8953    -3.1122    -2.8038 H       
  49 H49            4.5883    -6.6260    -0.3823 H       
  50 H50            6.1766    -6.0995    -0.9893 H       
  51 H51            5.3494    -5.1568     0.2737 H       
@<TRIPOS>BOND
   1    1    2 1
   2    1    9 ar
   3    1   17 ar
   4    2    3 1
   5    2    6 2
   6    3    4 1
   7    3   10 1
   8    4    5 2
   9    4   13 1
  10    5    6 1
  11    5    7 1
  12    7    8 2
  13    7   22 1
  14    8   24 1
  15    9   14 ar
  16    9   29 1
  17   10   11 1
  18   10   30 1
  19   10   31 1
  20   11   12 1
  21   11   21 1
  22   11   32 1
  23   12   13 1
  24   12   20 1
  25   13   33 1
  26   13   34 1
  27   14   15 ar
  28   14   19 1
  29   15   16 ar
  30   15   18 1
  31   16   17 ar
  32   16   35 1
  33   17   36 1
  34   20   37 1
  35   20   38 1
  36   20   39 1
  37   21   40 1
  38   21   41 1
  39   21   42 1
  40   22   23 1
  41   23   24 2
  42   23   25 1
  43   25   26 1
  44   25   27 1
  45   25   28 1
  46   26   43 1
  47   26   44 1
  48   26   45 1
  49   27   46 1
  50   27   47 1
  51   27   48 1
  52   28   49 1
  53   28   50 1
  54   28   51 1

#	End of record

