#	Name: ASD00431155
#	Creating user name:	WinNT
#	Creation time:	15. 06. 2019 18:35

#	Modifying user name:	WinNT
#	Modification time:	15. 06. 2019 18:35

#	Program:	/corina/corina34_cracker 3.40 0067  02.08.2006

@<TRIPOS>MOLECULE
ASD00431155
  53   56    0    0    0
SMALL
NO_CHARGES


@<TRIPOS>ATOM
   1 C1            -0.3917     2.0217    -1.0225 C.2     
   2 C2            -0.5981     0.5868    -1.4342 C.3     
   3 O3             0.7153     2.4117    -0.7171 O.2     
   4 N4            -1.4364     2.8729    -0.9990 N.am    
   5 C5            -1.2359     4.2678    -0.5987 C.3     
   6 C6            -0.7848     5.0862    -1.8102 C.3     
   7 O7            -3.7582     4.6096    -0.5578 O.3     
   8 N8            -4.6075     5.1918     0.0758 N.2     
   9 C9            -4.0811     5.8742     1.0663 C.2     
  10 C10           -2.6754     5.6490     0.9967 C.2     
  11 C11           -2.5295     4.8288    -0.0670 C.2     
  12 S12           -4.0672     7.6143     3.3727 S.3     
  13 C13           -5.6083     8.1717     3.8591 C.2     
  14 N14           -6.5272     7.6942     3.0774 N.2     
  15 C15           -6.1333     6.9074     2.1003 C.2     
  16 C16           -4.7996     6.7067     2.0521 C.2     
  17 O17           -5.8373     8.9936     4.9107 O.3     
  18 C18           -7.1287     9.2542     5.2478 C.ar    
  19 C19           -7.4155    10.2185     6.2050 C.ar    
  20 C20           -8.7280    10.4832     6.5467 C.ar    
  21 C21           -9.7584     9.7855     5.9335 C.ar    
  22 C22           -9.4715     8.8223     4.9779 C.ar    
  23 C23           -8.1597     8.5612     4.6317 C.ar    
  24 O24          -11.0499    10.0459     6.2697 O.3     
  25 C25          -14.4498     8.6386     5.5176 C.3     
  26 C26          -13.3474     9.2928     6.3545 C.3     
  27 C27          -12.0636     9.3705     5.5226 C.3     
  28 C28          -12.3506    10.1444     4.2322 C.3     
  29 C29          -13.4915     9.4573     3.4772 C.3     
  30 O30          -14.6450     9.3904     4.3181 O.3     
  31 Cl31          -6.1256    11.0907     6.9725 Cl      
  32 H32            0.3541     0.0575    -1.3968 H       
  33 H33           -1.3049     0.1116    -0.7540 H       
  34 H34           -0.9927     0.5533    -2.4498 H       
  35 H35           -2.3211     2.5619    -1.2471 H       
  36 H36           -0.4723     4.3168     0.1776 H       
  37 H37            0.1509     4.6804    -2.1947 H       
  38 H38           -1.5484     5.0371    -2.5865 H       
  39 H39           -0.6356     6.1240    -1.5123 H       
  40 H40           -1.9057     6.0429     1.6438 H       
  41 H41           -6.8189     6.4594     1.3962 H       
  42 H42           -8.9515    11.2328     7.2914 H       
  43 H43          -10.2740     8.2789     4.5013 H       
  44 H44           -7.9369     7.8144     3.8840 H       
  45 H45          -14.1576     7.6195     5.2644 H       
  46 H46          -15.3775     8.6194     6.0896 H       
  47 H47          -13.6564    10.2977     6.6422 H       
  48 H48          -13.1665     8.6963     7.2487 H       
  49 H49          -11.7262     8.3633     5.2779 H       
  50 H50          -12.6394    11.1665     4.4770 H       
  51 H51          -11.4567    10.1569     3.6085 H       
  52 H52          -13.7288    10.0279     2.5793 H       
  53 H53          -13.1867     8.4489     3.1973 H       
@<TRIPOS>BOND
   1    1    2 1
   2    1    3 2
   3    1    4 am
   4    2   32 1
   5    2   33 1
   6    2   34 1
   7    4    5 1
   8    4   35 1
   9    5    6 1
  10    5   11 1
  11    5   36 1
  12    6   37 1
  13    6   38 1
  14    6   39 1
  15    7    8 1
  16    7   11 1
  17    8    9 2
  18    9   10 1
  19    9   16 1
  20   10   11 2
  21   10   40 1
  22   12   13 1
  23   12   16 1
  24   13   14 2
  25   13   17 1
  26   14   15 1
  27   15   16 2
  28   15   41 1
  29   17   18 1
  30   18   19 ar
  31   18   23 ar
  32   19   20 ar
  33   19   31 1
  34   20   21 ar
  35   20   42 1
  36   21   22 ar
  37   21   24 1
  38   22   23 ar
  39   22   43 1
  40   23   44 1
  41   24   27 1
  42   25   26 1
  43   25   30 1
  44   25   45 1
  45   25   46 1
  46   26   27 1
  47   26   47 1
  48   26   48 1
  49   27   28 1
  50   27   49 1
  51   28   29 1
  52   28   50 1
  53   28   51 1
  54   29   30 1
  55   29   52 1
  56   29   53 1

#	End of record

