#	Name: ASD01813382
#	Creating user name:	WinNT
#	Creation time:	15. 06. 2019 19:30

#	Modifying user name:	WinNT
#	Modification time:	15. 06. 2019 19:30

#	Program:	/corina/corina34_cracker 3.40 0067  02.08.2006

@<TRIPOS>MOLECULE
ASD01813382
  46   49    0    0    0
SMALL
NO_CHARGES


@<TRIPOS>ATOM
   1 C1            -0.0169     1.3972     0.0097 C.2     
   2 C2             0.0021    -0.0041     0.0020 C.2     
   3 C3             1.1986    -0.6593    -0.0129 C.2     
   4 C4             2.3918     0.0821    -0.0204 C.2     
   5 N5             2.3437     1.4497    -0.0122 N.am    
   6 C6             1.1421     2.0937     0.0024 C.2     
   7 C7             3.6227    -0.5889    -0.0356 C.2     
   8 C8             4.7877     0.1218    -0.0425 C.2     
   9 C9             4.7345     1.5280    -0.0346 C.2     
  10 C10            3.4812     2.1736    -0.0189 C.2     
  11 O11            3.4258     3.3917    -0.0123 O.2     
  12 C12            5.9703     2.3140    -0.0413 C.2     
  13 O13            5.9124     3.6618    -0.0337 O.3     
  14 O14            7.0487     1.7516    -0.0537 O.2     
  15 C15            3.6593    -2.0954    -0.0439 C.3     
  16 C16            3.7837    -2.5946    -1.4848 C.3     
  17 N17            3.8194    -4.0631    -1.4929 N.3     
  18 C18            2.5361    -4.6250    -1.0369 C.3     
  19 C19            2.5946    -6.1246    -1.2049 C.2     
  20 N20            3.5237    -6.7523    -1.9681 N.pl3   
  21 C21            4.5701    -6.0539    -2.7192 C.3     
  22 C22            4.1801    -4.5739    -2.8230 C.3     
  23 N23            1.8148    -7.0214    -0.6807 N.2     
  24 C24            2.2122    -8.2409    -1.0811 C.2     
  25 C25            3.2827    -8.0888    -1.8883 C.2     
  26 C26            1.5738    -9.5504    -0.6954 C.3     
  27 F27            0.4224    -9.3034     0.0599 F       
  28 F28            1.2300   -10.2598    -1.8512 F       
  29 F29            2.4763   -10.3037     0.0630 F       
  30 H30           -0.9605     1.9226     0.0170 H       
  31 H31           -0.9233    -0.5609     0.0082 H       
  32 H32            1.2282    -1.7389    -0.0187 H       
  33 H33            1.1156     3.1733     0.0087 H       
  34 H34            5.7393    -0.3889    -0.0536 H       
  35 H35            6.7544     4.1373    -0.0385 H       
  36 H36            4.5153    -2.4412     0.5356 H       
  37 H37            2.7412    -2.4836     0.3971 H       
  38 H38            2.9277    -2.2488    -2.0643 H       
  39 H39            4.7018    -2.2064    -1.9259 H       
  40 H40            2.3785    -4.3780     0.0130 H       
  41 H41            1.7222    -4.2187    -1.6375 H       
  42 H42            5.5222    -6.1472    -2.1968 H       
  43 H43            4.6545    -6.4829    -3.7177 H       
  44 H44            3.3281    -4.4695    -3.4948 H       
  45 H45            5.0223    -4.0034    -3.2147 H       
  46 H46            3.8398    -8.8750    -2.3760 H       
@<TRIPOS>BOND
   1    1    2 1
   2    1    6 2
   3    1   30 1
   4    2    3 2
   5    2   31 1
   6    3    4 1
   7    3   32 1
   8    4    5 1
   9    4    7 2
  10    5    6 1
  11    5   10 am
  12    6   33 1
  13    7    8 1
  14    7   15 1
  15    8    9 2
  16    8   34 1
  17    9   10 1
  18    9   12 1
  19   10   11 2
  20   12   13 1
  21   12   14 2
  22   13   35 1
  23   15   16 1
  24   15   36 1
  25   15   37 1
  26   16   17 1
  27   16   38 1
  28   16   39 1
  29   17   18 1
  30   17   22 1
  31   18   19 1
  32   18   40 1
  33   18   41 1
  34   19   20 1
  35   19   23 2
  36   20   21 1
  37   20   25 1
  38   21   22 1
  39   21   42 1
  40   21   43 1
  41   22   44 1
  42   22   45 1
  43   23   24 1
  44   24   25 2
  45   24   26 1
  46   25   46 1
  47   26   27 1
  48   26   28 1
  49   26   29 1

#	End of record

