#	Name: ASD05233009
#	Creating user name:	WinNT
#	Creation time:	15. 06. 2019 20:57

#	Modifying user name:	WinNT
#	Modification time:	15. 06. 2019 20:57

#	Program:	/corina/corina34_cracker 3.40 0067  02.08.2006

@<TRIPOS>MOLECULE
ASD05233009
  24   25    0    0    0
SMALL
NO_CHARGES


@<TRIPOS>ATOM
   1 C1            -0.0163     1.3480     0.0095 C.2     
   2 C2             0.0021    -0.0041     0.0020 C.2     
   3 C3            -1.3312    -0.4497     0.0123 C.2     
   4 C4            -2.1294     0.6553     0.0259 C.2     
   5 N5            -1.3166     1.7628     0.0300 N.pl3   
   6 C6            -3.6072     0.6608     0.0393 C.ar    
   7 C7            -4.3023     0.1457     1.1396 C.ar    
   8 C8            -5.6880     0.1553     1.1437 C.ar    
   9 C9            -6.3811     0.6721     0.0636 C.ar    
  10 C10           -5.6968     1.1822    -1.0271 C.ar    
  11 C11           -4.3161     1.1848    -1.0424 C.ar    
  12 O12           -3.6206    -0.3626     2.2000 O.3     
  13 Cl13          -1.8630    -2.1023     0.0085 Cl      
  14 Cl14           1.4176    -1.0089    -0.0174 Cl      
  15 Cl15           1.3784     2.3817     0.0017 Cl      
  16 Cl16          -6.5553    -0.4822     2.5057 Cl      
  17 Cl17          -6.5780     1.8273    -2.3765 Cl      
  18 C18           -3.2851     0.5454     3.2511 C.3     
  19 H19           -1.6166     2.6852     0.0392 H       
  20 H20           -7.4611     0.6773     0.0708 H       
  21 H21           -3.7856     1.5834    -1.8946 H       
  22 H22           -4.1975     0.9727     3.6671 H       
  23 H23           -2.7442     0.0122     4.0330 H       
  24 H24           -2.6576     1.3438     2.8551 H       
@<TRIPOS>BOND
   1    1    2 2
   2    1   15 1
   3    1    5 1
   4    2    3 1
   5    2   14 1
   6    3    4 2
   7    3   13 1
   8    4    5 1
   9    4    6 1
  10    5   19 1
  11    6    7 ar
  12    6   11 ar
  13    7    8 ar
  14    7   12 1
  15    8    9 ar
  16    8   16 1
  17    9   10 ar
  18    9   20 1
  19   10   11 ar
  20   10   17 1
  21   11   21 1
  22   12   18 1
  23   18   22 1
  24   18   23 1
  25   18   24 1

#	End of record

