#	Name: ASD01770008
#	Creating user name:	WinNT
#	Creation time:	15. 06. 2019 19:23

#	Modifying user name:	WinNT
#	Modification time:	15. 06. 2019 19:23

#	Program:	/corina/corina34_cracker 3.40 0067  02.08.2006

@<TRIPOS>MOLECULE
ASD01770008
  42   43    0    0    0
SMALL
NO_CHARGES


@<TRIPOS>ATOM
   1 O1            -0.0110     0.9628     0.0073 O.3     
   2 C2             1.2864     1.5618    -0.0018 C.3     
   3 C3             2.0566     1.1665    -1.2853 C.3     
   4 O4             3.0182     0.1463    -1.0091 O.3     
   5 C5             2.7552     2.4964    -1.6672 C.3     
   6 C6             3.0656     2.5311    -3.1650 C.3     
   7 Cl7            4.0058     4.0207    -3.5495 Cl      
   8 O8             1.7756     3.5011    -1.3275 O.3     
   9 C9             1.1715     3.0961    -0.0877 C.3     
  10 C10            1.9096     3.7426     1.0863 C.3     
  11 Cl11           3.6476     3.2651     1.0399 Cl      
  12 O12           -0.2042     3.4822    -0.0684 O.3     
  13 C13           -0.4184     4.8801    -0.2736 C.3     
  14 O14           -0.1084     5.2161    -1.6275 O.3     
  15 C15           -0.8798     4.5037    -2.5968 C.3     
  16 C16           -0.4443     4.9217    -4.0027 C.3     
  17 O17            0.9079     4.5154    -4.2231 O.3     
  18 C18           -2.3636     4.8279    -2.4044 C.3     
  19 Cl19          -2.6364     6.5886    -2.6804 Cl      
  20 C20           -2.7769     4.4623    -0.9755 C.3     
  21 O21           -4.1423     4.8275    -0.7646 O.3     
  22 C22           -1.8837     5.2193     0.0122 C.3     
  23 O23           -2.2122     4.8309     1.3476 O.3     
  24 H24            0.0021    -0.0041     0.0020 H       
  25 H25            1.8473     1.2682     0.8854 H       
  26 H26            1.3691     0.8486    -2.0691 H       
  27 H27            3.5263    -0.1350    -1.7823 H       
  28 H28            3.6662     2.6325    -1.0844 H       
  29 H29            3.6508     1.6521    -3.4352 H       
  30 H30            2.1330     2.5343    -3.7293 H       
  31 H31            1.8287     4.8272     1.0134 H       
  32 H32            1.4656     3.4074     2.0236 H       
  33 H33            0.2241     5.4488     0.3986 H       
  34 H34           -0.7224     3.4326    -2.4707 H       
  35 H35           -1.0913     4.4461    -4.7399 H       
  36 H36           -0.5185     6.0049    -4.0991 H       
  37 H37            1.2512     4.7483    -5.0965 H       
  38 H38           -2.9573     4.2516    -3.1140 H       
  39 H39           -2.6591     3.3892    -0.8250 H       
  40 H40           -4.7635     4.3887    -1.3617 H       
  41 H41           -2.0388     6.2919    -0.1048 H       
  42 H42           -3.1277     5.0169     1.5973 H       
@<TRIPOS>BOND
   1    1   24 1
   2    1    2 1
   3    2    3 1
   4    2   25 1
   5    2    9 1
   6    3    4 1
   7    3   26 1
   8    3    5 1
   9    4   27 1
  10    5    6 1
  11    5   28 1
  12    5    8 1
  13    6   29 1
  14    6   30 1
  15    6    7 1
  16    8    9 1
  17    9   12 1
  18    9   10 1
  19   10   31 1
  20   10   32 1
  21   10   11 1
  22   12   13 1
  23   13   22 1
  24   13   14 1
  25   13   33 1
  26   14   15 1
  27   15   18 1
  28   15   16 1
  29   15   34 1
  30   16   17 1
  31   16   35 1
  32   16   36 1
  33   17   37 1
  34   18   38 1
  35   18   20 1
  36   18   19 1
  37   20   39 1
  38   20   22 1
  39   20   21 1
  40   21   40 1
  41   22   41 1
  42   22   23 1
  43   23   42 1

#	End of record

