#	Name: ASD01900402
#	Creating user name:	WinNT
#	Creation time:	15. 06. 2019 19:51

#	Modifying user name:	WinNT
#	Modification time:	15. 06. 2019 19:51

#	Program:	/corina/corina34_cracker 3.40 0067  02.08.2006

@<TRIPOS>MOLECULE
ASD01900402
  68   73    0    0    0
SMALL
NO_CHARGES


@<TRIPOS>ATOM
   1 C1             0.1927     0.8133    -0.4059 C.ar    
   2 C2             0.3731    -0.5410    -0.4388 C.ar    
   3 C3             1.6582    -1.0838    -0.5142 C.ar    
   4 C4             2.7727    -0.2480    -0.5489 C.ar    
   5 C5             2.5963     1.1223    -0.5101 C.ar    
   6 C6             1.2979     1.6622    -0.4486 C.ar    
   7 N7             3.6758     1.9994    -0.5232 N.pl3   
   8 C8             3.4920     3.3376    -1.0966 C.3     
   9 N9             2.2202     3.9087    -0.6520 N.am    
  10 C10            1.1468     3.1269    -0.4208 C.2     
  11 C11            2.1165     5.2923    -0.4623 C.ar    
  12 C12            1.4653     6.0760    -1.4057 C.ar    
  13 C13            1.3636     7.4402    -1.2179 C.ar    
  14 C14            1.9122     8.0280    -0.0875 C.ar    
  15 C15            2.5629     7.2457     0.8554 C.ar    
  16 C16            2.6601     5.8805     0.6721 C.ar    
  17 C17            2.4000     9.9095     1.2826 C.3     
  18 O18            1.8124     9.3715     0.0963 O.3     
  19 O19            0.0618     3.6269    -0.1922 O.2     
  20 C20            1.8370    -2.5553    -0.5571 C.ar    
  21 C21            0.7260    -3.3963    -0.5223 C.ar    
  22 C22            0.8984    -4.7650    -0.5629 C.ar    
  23 C23            2.1708    -5.3025    -0.6376 C.ar    
  24 C24            3.2771    -4.4728    -0.6724 C.ar    
  25 C25            3.1165    -3.1025    -0.6382 C.ar    
  26 C26            4.6427     4.2424    -0.6471 C.3     
  27 C27            3.4997     3.2385    -2.6248 C.3     
  28 C28            3.3772     4.6426    -3.2214 C.3     
  29 N29            4.4998     5.4703    -2.7622 N.3     
  30 C30            4.4891     5.6174    -1.3012 C.3     
  31 C31            4.4916     6.7821    -3.4234 C.3     
  32 C32            5.6030     7.6331    -2.8650 C.ar    
  33 C33            6.8888     7.4981    -3.3547 C.ar    
  34 C34            7.9098     8.2771    -2.8438 C.ar    
  35 C35            7.6454     9.1939    -1.8412 C.ar    
  36 C36            6.3558     9.3296    -1.3503 C.ar    
  37 C37            5.3346     8.5516    -1.8677 C.ar    
  38 F38            8.6430     9.9554    -1.3410 F       
  39 F39            6.0955    10.2234    -0.3714 F       
  40 H40           -0.8041     1.2252    -0.3513 H       
  41 H41           -0.4844    -1.1967    -0.4060 H       
  42 H42            3.7663    -0.6676    -0.6052 H       
  43 H43            4.5343     1.7316    -0.1596 H       
  44 H44            1.0388     5.6186    -2.2862 H       
  45 H45            0.8571     8.0498    -1.9516 H       
  46 H46            2.9901     7.7041     1.7351 H       
  47 H47            3.1625     5.2710     1.4086 H       
  48 H48            1.9309     9.4586     2.1571 H       
  49 H49            3.4680     9.6913     1.2902 H       
  50 H50            2.2495    10.9888     1.3054 H       
  51 H51           -0.2678    -2.9777    -0.4633 H       
  52 H52            0.0383    -5.4176    -0.5360 H       
  53 H53            2.3011    -6.3742    -0.6685 H       
  54 H54            4.2682    -4.8980    -0.7304 H       
  55 H55            3.9807    -2.4555    -0.6696 H       
  56 H56            4.6185     4.3505     0.4373 H       
  57 H57            5.5924     3.8002    -0.9482 H       
  58 H58            4.4330     2.7827    -2.9554 H       
  59 H59            2.6588     2.6283    -2.9543 H       
  60 H60            3.3948     4.5778    -4.3093 H       
  61 H61            2.4383     5.0932    -2.8997 H       
  62 H62            3.5459     6.0651    -0.9882 H       
  63 H63            5.3149     6.2595    -0.9949 H       
  64 H64            4.6390     6.6496    -4.4953 H       
  65 H65            3.5344     7.2724    -3.2461 H       
  66 H66            7.0958     6.7829    -4.1371 H       
  67 H67            8.9140     8.1702    -3.2268 H       
  68 H68            4.3289     8.6592    -1.4891 H       
@<TRIPOS>BOND
   1    1    2 ar
   2    1    6 ar
   3    1   40 1
   4    2    3 ar
   5    2   41 1
   6    3    4 ar
   7    3   20 1
   8    4    5 ar
   9    4   42 1
  10    5    7 1
  11    5    6 ar
  12    6   10 1
  13    7    8 1
  14    7   43 1
  15    8    9 1
  16    8   27 1
  17    8   26 1
  18    9   10 am
  19    9   11 1
  20   10   19 2
  21   11   12 ar
  22   11   16 ar
  23   12   13 ar
  24   12   44 1
  25   13   14 ar
  26   13   45 1
  27   14   15 ar
  28   14   18 1
  29   15   16 ar
  30   15   46 1
  31   16   47 1
  32   17   18 1
  33   17   48 1
  34   17   49 1
  35   17   50 1
  36   20   21 ar
  37   20   25 ar
  38   21   22 ar
  39   21   51 1
  40   22   23 ar
  41   22   52 1
  42   23   24 ar
  43   23   53 1
  44   24   25 ar
  45   24   54 1
  46   25   55 1
  47   26   30 1
  48   26   56 1
  49   26   57 1
  50   27   28 1
  51   27   58 1
  52   27   59 1
  53   28   29 1
  54   28   60 1
  55   28   61 1
  56   29   30 1
  57   29   31 1
  58   30   62 1
  59   30   63 1
  60   31   32 1
  61   31   64 1
  62   31   65 1
  63   32   33 ar
  64   32   37 ar
  65   33   34 ar
  66   33   66 1
  67   34   35 ar
  68   34   67 1
  69   35   36 ar
  70   35   38 1
  71   36   37 ar
  72   36   39 1
  73   37   68 1

#	End of record

