#	Name: ASD01911413
#	Creating user name:	WinNT
#	Creation time:	15. 06. 2019 19:57

#	Modifying user name:	WinNT
#	Modification time:	15. 06. 2019 19:57

#	Program:	/corina/corina34_cracker 3.40 0067  02.08.2006

@<TRIPOS>MOLECULE
ASD01911413
  28   30    0    0    0
SMALL
NO_CHARGES


@<TRIPOS>ATOM
   1 C1            -0.0167     1.3817     0.0096 C.ar    
   2 C2             0.0021    -0.0041     0.0020 C.ar    
   3 C3            -1.1829    -0.7186     0.0090 C.ar    
   4 C4            -2.3921    -0.0560     0.0241 C.ar    
   5 C5            -2.4205     1.3417     0.0324 C.ar    
   6 C6            -1.2210     2.0584     0.0305 C.ar    
   7 C7            -3.6730     2.0357     0.0480 C.1     
   8 C8            -4.6999     2.6046     0.0608 C.1     
   9 C9            -5.9524     3.2986     0.0765 C.ar    
  10 C10           -5.9758     4.7007     0.0847 C.ar    
  11 C11           -7.1883     5.3625     0.0993 C.ar    
  12 C12           -8.3938     4.6271     0.1059 C.ar    
  13 C13           -8.3619     3.2385     0.0974 C.ar    
  14 C14           -7.1500     2.5772     0.0777 C.ar    
  15 C15           -7.5845     6.7870     0.1105 C.2     
  16 N16           -8.9278     6.8568     0.1227 N.am    
  17 C17           -9.4771     5.6292     0.1209 C.2     
  18 O18          -10.6673     5.3856     0.1300 O.2     
  19 O19           -6.8249     7.7347     0.1094 O.2     
  20 F20            1.1446     2.0719     0.0023 F       
  21 H21            0.9460    -0.5287    -0.0098 H       
  22 H22           -1.1606    -1.7983     0.0023 H       
  23 H23           -3.3157    -0.6158     0.0292 H       
  24 H24           -1.2353     3.1383     0.0368 H       
  25 H25           -5.0517     5.2596     0.0800 H       
  26 H26           -9.2842     2.6767     0.1025 H       
  27 H27           -7.1270     1.4974     0.0711 H       
  28 H28           -9.4340     7.6842     0.1319 H       
@<TRIPOS>BOND
   1    1    2 ar
   2    1   20 1
   3    1    6 ar
   4    2    3 ar
   5    2   21 1
   6    3    4 ar
   7    3   22 1
   8    4    5 ar
   9    4   23 1
  10    5    6 ar
  11    5    7 1
  12    6   24 1
  13    7    8 3
  14    8    9 1
  15    9   10 ar
  16    9   14 ar
  17   10   11 ar
  18   10   25 1
  19   11   12 ar
  20   11   15 1
  21   12   13 ar
  22   12   17 1
  23   13   14 ar
  24   13   26 1
  25   14   27 1
  26   15   16 am
  27   15   19 2
  28   16   17 am
  29   16   28 1
  30   17   18 2

#	End of record

