#	Name: ASD03092843
#	Creating user name:	WinNT
#	Creation time:	15. 06. 2019 20:33

#	Modifying user name:	WinNT
#	Modification time:	15. 06. 2019 20:33

#	Program:	/corina/corina34_cracker 3.40 0067  02.08.2006

@<TRIPOS>MOLECULE
ASD03092843
  50   53    0    0    0
SMALL
NO_CHARGES


@<TRIPOS>ATOM
   1 C1             0.6181     1.1291     0.0874 C.3     
   2 C2             0.5092    -0.3713    -0.0025 C.ar    
   3 C3             0.4063    -0.9815    -1.2354 C.ar    
   4 C4             0.3055    -2.3700    -1.3172 C.ar    
   5 C5             0.3094    -3.1341    -0.1511 C.ar    
   6 C6             0.4128    -2.5136     1.0771 C.ar    
   7 C7             0.5182    -1.1353     1.1523 C.ar    
   8 Cl8            0.6557    -0.3616     2.7003 Cl      
   9 C9             0.1942    -3.0310    -2.6390 C.2     
  10 N10           -0.5731    -2.5702    -3.5962 N.2     
  11 C11           -0.5953    -3.2303    -4.7184 C.2     
  12 S12            0.4730    -4.6255    -4.6102 S.3     
  13 C13            0.8953    -4.1766    -2.9590 C.2     
  14 C14            1.8302    -4.8990    -2.0741 C.ar    
  15 C15            1.7178    -6.2820    -1.9139 C.ar    
  16 C16            2.5951    -6.9506    -1.0858 C.ar    
  17 C17            3.5846    -6.2544    -0.4142 C.ar    
  18 C18            3.7018    -4.8842    -0.5683 C.ar    
  19 C19            2.8350    -4.2035    -1.3976 C.ar    
  20 S20            4.7003    -7.1166     0.6425 S.o2    
  21 N21            5.9939    -7.5781    -0.2826 N.am    
  22 O22            5.1922    -6.1609     1.5719 O.2     
  23 O23            4.0396    -8.3123     1.0334 O.2     
  24 C24           -1.3941    -2.8651    -5.8998 C.2     
  25 O25           -2.1815    -1.9400    -5.8393 O.2     
  26 N26           -1.2528    -3.5558    -7.0485 N.am    
  27 C27           -1.9025    -3.2314    -8.3315 C.3     
  28 C28           -0.9913    -3.8692    -9.4098 C.3     
  29 C29           -0.5498    -5.1808    -8.7084 C.3     
  30 C30           -0.4203    -4.7537    -7.2312 C.3     
  31 H31            1.6681     1.4198     0.0540 H       
  32 H32            0.0888     1.5827    -0.7506 H       
  33 H33            0.1763     1.4700     1.0237 H       
  34 H34            0.4034    -0.3850    -2.1357 H       
  35 H35            0.2312    -4.2098    -0.2089 H       
  36 H36            0.4155    -3.1045     1.9811 H       
  37 H37            0.9455    -6.8265    -2.4369 H       
  38 H38            2.5094    -8.0199    -0.9609 H       
  39 H39            4.4765    -4.3471    -0.0411 H       
  40 H40            2.9304    -3.1348    -1.5204 H       
  41 H41            6.8726    -7.6616     0.1197 H       
  42 H42            5.8730    -7.7650    -1.2267 H       
  43 H43           -2.9007    -3.6674    -8.3721 H       
  44 H44           -1.9535    -2.1513    -8.4685 H       
  45 H45           -1.5528    -4.0824   -10.3194 H       
  46 H46           -0.1330    -3.2319    -9.6227 H       
  47 H47           -1.3085    -5.9547    -8.8248 H       
  48 H48            0.4112    -5.5202    -9.0950 H       
  49 H49            0.6193    -4.5214    -7.0003 H       
  50 H50           -0.7760    -5.5547    -6.5832 H       
@<TRIPOS>BOND
   1    1    2 1
   2    1   31 1
   3    1   32 1
   4    1   33 1
   5    2    7 ar
   6    2    3 ar
   7    3    4 ar
   8    3   34 1
   9    4    5 ar
  10    4    9 1
  11    5    6 ar
  12    5   35 1
  13    6    7 ar
  14    6   36 1
  15    7    8 1
  16    9   13 2
  17    9   10 1
  18   10   11 2
  19   11   12 1
  20   11   24 1
  21   12   13 1
  22   13   14 1
  23   14   19 ar
  24   14   15 ar
  25   15   16 ar
  26   15   37 1
  27   16   17 ar
  28   16   38 1
  29   17   18 ar
  30   17   20 1
  31   18   19 ar
  32   18   39 1
  33   19   40 1
  34   20   21 am
  35   20   22 2
  36   20   23 2
  37   21   41 1
  38   21   42 1
  39   24   25 2
  40   24   26 am
  41   26   30 1
  42   26   27 1
  43   27   28 1
  44   27   43 1
  45   27   44 1
  46   28   29 1
  47   28   45 1
  48   28   46 1
  49   29   30 1
  50   29   47 1
  51   29   48 1
  52   30   49 1
  53   30   50 1

#	End of record

