#	Name: ASD01180044
#	Creating user name:	WinNT
#	Creation time:	15. 06. 2019 19:06

#	Modifying user name:	WinNT
#	Modification time:	15. 06. 2019 19:06

#	Program:	/corina/corina34_cracker 3.40 0067  02.08.2006

@<TRIPOS>MOLECULE
ASD01180044
  38   40    0    0    0
SMALL
NO_CHARGES


@<TRIPOS>ATOM
   1 O1            -0.0996     0.1975    -0.1023 O.2     
   2 C2            -0.1196     1.4079    -0.0275 C.2     
   3 C3             1.1752     2.1748    -0.0324 C.3     
   4 C4             1.0589     3.3984     0.8774 C.3     
   5 C5            -0.2111     4.1437     0.5588 C.ar    
   6 C6            -1.3422     3.4432     0.1617 C.ar    
   7 N7            -1.2996     2.0497     0.0533 N.am    
   8 C8            -2.5130     4.1296    -0.1322 C.ar    
   9 C9            -3.7434     3.3734    -0.5628 C.3     
  10 C10           -2.5482     5.5063    -0.0287 C.ar    
  11 C11           -1.4195     6.2010     0.3666 C.ar    
  12 C12           -0.2523     5.5202     0.6603 C.ar    
  13 C13           -3.8180     6.2527    -0.3475 C.3     
  14 C14            1.0322     2.9531     2.3168 C.ar    
  15 C15           -0.0414     2.2260     2.7954 C.ar    
  16 C16           -0.0659     1.8175     4.1161 C.ar    
  17 C17            0.9833     2.1359     4.9575 C.ar    
  18 C18            2.0576     2.8625     4.4785 C.ar    
  19 C19            2.0842     3.2671     3.1572 C.ar    
  20 N20            3.2343     4.0450     2.6444 N.pl3   
  21 O21            3.6674     3.8268     1.5271 O.2     
  22 O22            3.7476     4.9033     3.3396 O.2     
  23 H23            1.9784     1.5315     0.3270 H       
  24 H24            1.4001     2.4992    -1.0484 H       
  25 H25            1.9148     4.0537     0.7159 H       
  26 H26           -2.1259     1.5419     0.0432 H       
  27 H27           -4.3338     3.1102     0.3148 H       
  28 H28           -4.3397     3.9982    -1.2278 H       
  29 H29           -3.4466     2.4649    -1.0869 H       
  30 H30           -1.4498     7.2777     0.4459 H       
  31 H31            0.6274     6.0653     0.9690 H       
  32 H32           -4.4183     6.3513     0.5570 H       
  33 H33           -3.5711     7.2432    -0.7296 H       
  34 H34           -4.3831     5.7033    -1.1004 H       
  35 H35           -0.8612     1.9772     2.1379 H       
  36 H36           -0.9051     1.2499     4.4902 H       
  37 H37            0.9638     1.8174     5.9893 H       
  38 H38            2.8773     3.1116     5.1361 H       
@<TRIPOS>BOND
   1    1    2 2
   2    2    3 1
   3    2    7 am
   4    3    4 1
   5    3   23 1
   6    3   24 1
   7    4    5 1
   8    4   14 1
   9    4   25 1
  10    5    6 ar
  11    5   12 ar
  12    6    7 1
  13    6    8 ar
  14    7   26 1
  15    8    9 1
  16    8   10 ar
  17    9   27 1
  18    9   28 1
  19    9   29 1
  20   10   11 ar
  21   10   13 1
  22   11   12 ar
  23   11   30 1
  24   12   31 1
  25   13   32 1
  26   13   33 1
  27   13   34 1
  28   14   15 ar
  29   14   19 ar
  30   15   16 ar
  31   15   35 1
  32   16   17 ar
  33   16   36 1
  34   17   18 ar
  35   17   37 1
  36   18   19 ar
  37   18   38 1
  38   19   20 1
  39   20   21 2
  40   20   22 2

#	End of record

