#	Name: ASD01813603
#	Creating user name:	WinNT
#	Creation time:	15. 06. 2019 19:30

#	Modifying user name:	WinNT
#	Modification time:	15. 06. 2019 19:30

#	Program:	/corina/corina34_cracker 3.40 0067  02.08.2006

@<TRIPOS>MOLECULE
ASD01813603
  51   54    0    0    0
SMALL
NO_CHARGES


@<TRIPOS>ATOM
   1 C1            -0.0533     1.4399    -0.0973 C.ar    
   2 C2            -0.0179     0.0539    -0.0918 C.ar    
   3 C3             1.1858    -0.6210    -0.0865 C.ar    
   4 C4             2.3839     0.0910    -0.0871 C.ar    
   5 C5             2.3465     1.4958    -0.0931 C.ar    
   6 C6             1.1207     2.1662    -0.0980 C.ar    
   7 N7             3.5929    -0.5724    -0.0808 N.pl3   
   8 C8             4.7702     0.0656    -0.0801 C.2     
   9 C9             4.8602     1.4429    -0.0852 C.2     
  10 C10            3.6204     2.2367    -0.0937 C.2     
  11 O11            3.6464     3.4550    -0.0989 O.2     
  12 C12            6.1717     2.1059    -0.0833 C.2     
  13 O13            6.2466     3.4519    -0.0883 O.3     
  14 O14            7.1891     1.4405    -0.0770 O.2     
  15 C15            3.5891    -2.0374    -0.0740 C.3     
  16 C16            3.4454    -2.5458    -1.4854 C.ar    
  17 N17            2.2445    -2.6675    -2.0131 N.ar    
  18 C18            2.0706    -3.1108    -3.2514 C.ar    
  19 C19            3.1651    -3.4643    -4.0371 C.ar    
  20 C20            4.4390    -3.3464    -3.5079 C.ar    
  21 C21            4.5763    -2.8730    -2.2110 C.ar    
  22 F22            1.2028    -1.9719    -0.0803 F       
  23 F23            1.0845     3.5167    -0.1043 F       
  24 C24            0.6990    -3.2314    -3.8038 C.ar    
  25 C25           -0.4004    -2.8805    -3.0250 C.ar    
  26 C26           -1.6803    -2.9952    -3.5477 C.ar    
  27 C27           -1.8613    -3.4591    -4.8450 C.ar    
  28 C28           -0.7691    -3.8075    -5.6170 C.ar    
  29 C29            0.5079    -3.6908    -5.1061 C.ar    
  30 N30           -2.7866    -2.6448    -2.7700 N.pl3   
  31 C31           -2.6062    -2.2760    -1.3637 C.3     
  32 C32           -4.1272    -2.6462    -3.3608 C.3     
  33 H33           -1.0033     1.9535    -0.1056 H       
  34 H34           -0.9427    -0.5038    -0.0914 H       
  35 H35            5.6796    -0.5170    -0.0750 H       
  36 H36            7.1312     3.8423    -0.0868 H       
  37 H37            4.5251    -2.4012     0.3497 H       
  38 H38            2.7541    -2.3958     0.5281 H       
  39 H39            3.0220    -3.8257    -5.0447 H       
  40 H40            5.3068    -3.6129    -4.0931 H       
  41 H41            5.5563    -2.7691    -1.7694 H       
  42 H42           -0.2573    -2.5205    -2.0169 H       
  43 H43           -2.8582    -3.5480    -5.2510 H       
  44 H44           -0.9150    -4.1679    -6.6246 H       
  45 H45            1.3589    -3.9637    -5.7125 H       
  46 H46           -1.5641    -2.4231    -1.0803 H       
  47 H47           -2.8762    -1.2291    -1.2252 H       
  48 H48           -3.2443    -2.9015    -0.7394 H       
  49 H49           -4.5791    -3.6300    -3.2341 H       
  50 H50           -4.7437    -1.8966    -2.8647 H       
  51 H51           -4.0563    -2.4131    -4.4232 H       
@<TRIPOS>BOND
   1    1    2 ar
   2    1    6 ar
   3    1   33 1
   4    2    3 ar
   5    2   34 1
   6    3    4 ar
   7    3   22 1
   8    4    5 ar
   9    4    7 1
  10    5    6 ar
  11    5   10 1
  12    6   23 1
  13    7    8 1
  14    7   15 1
  15    8    9 2
  16    8   35 1
  17    9   10 1
  18    9   12 1
  19   10   11 2
  20   12   13 1
  21   12   14 2
  22   13   36 1
  23   15   16 1
  24   15   37 1
  25   15   38 1
  26   16   17 ar
  27   16   21 ar
  28   17   18 ar
  29   18   19 ar
  30   18   24 1
  31   19   20 ar
  32   19   39 1
  33   20   21 ar
  34   20   40 1
  35   21   41 1
  36   24   25 ar
  37   24   29 ar
  38   25   26 ar
  39   25   42 1
  40   26   27 ar
  41   26   30 1
  42   27   28 ar
  43   27   43 1
  44   28   29 ar
  45   28   44 1
  46   29   45 1
  47   30   31 1
  48   30   32 1
  49   31   46 1
  50   31   47 1
  51   31   48 1
  52   32   49 1
  53   32   50 1
  54   32   51 1

#	End of record

