#	Name: ASD01028049
#	Creating user name:	WinNT
#	Creation time:	15. 06. 2019 18:56

#	Modifying user name:	WinNT
#	Modification time:	15. 06. 2019 18:56

#	Program:	/corina/corina34_cracker 3.40 0067  02.08.2006

@<TRIPOS>MOLECULE
ASD01028049
  51   55    0    0    0
SMALL
NO_CHARGES


@<TRIPOS>ATOM
   1 C1            -0.0187     1.5257     0.0104 C.3     
   2 C2             0.0021    -0.0041     0.0020 C.3     
   3 C3             1.4160     2.0570    -0.0004 C.3     
   4 N4             2.8584     3.0511     1.7180 N.3     
   5 N5             1.6320    -0.1725     3.4462 N.pl3   
   6 C6             2.5201     0.5892     4.2232 C.ar    
   7 C7             3.3118     1.5095     3.5421 C.ar    
   8 C8             3.1731     1.6557     2.0483 C.3     
   9 C9             2.6071     0.4881     5.6056 C.ar    
  10 C10            3.5407     1.2609     6.2906 C.ar    
  11 C11            4.3497     2.1526     5.5990 C.ar    
  12 C12            4.2237     2.2783     4.2294 C.ar    
  13 C13           -1.0954    -2.2623     1.0192 C.ar    
  14 C14           -0.1824    -1.5685     1.7852 C.ar    
  15 C15            0.0884    -1.9973     3.0939 C.ar    
  16 C16            1.0071    -1.3103     3.9283 C.ar    
  17 N17            1.2349    -1.8013     5.1371 N.ar    
  18 O18            1.9055    -0.2396     6.5180 O.3     
  19 C19            2.5866    -0.1321     7.7725 C.3     
  20 O20            3.4874     0.9719     7.6216 O.3     
  21 C21           -1.7498    -3.3825     1.5332 C.ar    
  22 C22           -1.4920    -3.8249     2.8141 C.ar    
  23 C23           -0.5640    -3.1439     3.6091 C.ar    
  24 N24           -0.2612    -3.5493     4.8519 N.ar    
  25 C25            0.6135    -2.8864     5.5712 C.ar    
  26 O26           -2.6510    -4.0449     0.7633 O.3     
  27 C27           -3.2881    -5.1841     1.3451 C.3     
  28 C28            1.5594     3.1634     1.0452 C.3     
  29 O29            0.4465    -0.4810     1.2725 O.3     
  30 H30           -0.5462     1.8866    -0.8725 H       
  31 H31           -0.5292     1.8771     0.9071 H       
  32 H32           -1.0016    -0.3800    -0.1964 H       
  33 H33            0.6814    -0.3540    -0.7753 H       
  34 H34            2.1055     1.2455     0.2326 H       
  35 H35            1.6474     2.4578    -0.9873 H       
  36 H36            2.8907     3.6337     2.5413 H       
  37 H37            1.4491     0.1096     2.5364 H       
  38 H38            2.3709     1.0088     1.6932 H       
  39 H39            4.1088     1.3708     1.5672 H       
  40 H40            5.0761     2.7482     6.1319 H       
  41 H41            4.8442     2.9823     3.6949 H       
  42 H42           -1.3064    -1.9352     0.0118 H       
  43 H43            1.8741     0.0690     8.5726 H       
  44 H44            3.1421    -1.0467     7.9799 H       
  45 H45           -2.0047    -4.6929     3.2015 H       
  46 H46            0.8372    -3.2436     6.5656 H       
  47 H47           -2.5342    -5.9235     1.6153 H       
  48 H48           -3.8339    -4.8787     2.2378 H       
  49 H49           -3.9822    -5.6190     0.6259 H       
  50 H50            1.4879     4.1349     0.5562 H       
  51 H51            0.7612     3.0710     1.7816 H       
@<TRIPOS>BOND
   1    1    2 1
   2    1    3 1
   3    1   30 1
   4    1   31 1
   5    2   29 1
   6    2   32 1
   7    2   33 1
   8    3   28 1
   9    3   34 1
  10    3   35 1
  11    4   28 1
  12    4    8 1
  13    4   36 1
  14    5    6 1
  15    5   16 1
  16    5   37 1
  17    6    7 ar
  18    6    9 ar
  19    7    8 1
  20    7   12 ar
  21    8   38 1
  22    8   39 1
  23    9   10 ar
  24    9   18 1
  25   10   11 ar
  26   10   20 1
  27   11   12 ar
  28   11   40 1
  29   12   41 1
  30   13   14 ar
  31   13   21 ar
  32   13   42 1
  33   14   15 ar
  34   14   29 1
  35   15   16 ar
  36   15   23 ar
  37   16   17 ar
  38   17   25 ar
  39   18   19 1
  40   19   20 1
  41   19   43 1
  42   19   44 1
  43   21   22 ar
  44   21   26 1
  45   22   23 ar
  46   22   45 1
  47   23   24 ar
  48   24   25 ar
  49   25   46 1
  50   26   27 1
  51   27   47 1
  52   27   48 1
  53   27   49 1
  54   28   50 1
  55   28   51 1

#	End of record

