#	Name: ASD01918074
#	Creating user name:	WinNT
#	Creation time:	15. 06. 2019 20:10

#	Modifying user name:	WinNT
#	Modification time:	15. 06. 2019 20:10

#	Program:	/corina/corina34_cracker 3.40 0067  02.08.2006

@<TRIPOS>MOLECULE
ASD01918074
  46   49    0    0    0
SMALL
NO_CHARGES


@<TRIPOS>ATOM
   1 C1            -0.0229     1.4979     0.0323 C.3     
   2 C2            -0.0030    -0.0078     0.0104 C.2     
   3 C3             1.0839    -0.7502    -0.3152 C.2     
   4 C4             2.4195    -0.1741    -0.7032 C.3     
   5 C5             2.2210     1.3042    -1.0630 C.3     
   6 C6             1.4269     1.9996     0.0455 C.3     
   7 N7             0.7092    -2.0370    -0.2161 N.pl3   
   8 N8            -0.5299    -2.0648     0.1452 N.2     
   9 N9            -0.9807    -0.8643     0.2876 N.2     
  10 C10            1.5578    -3.2033    -0.4730 C.3     
  11 C11            1.4446     3.4891    -0.1831 C.2     
  12 N12            1.9233     4.3955     0.6321 N.2     
  13 C13            1.7235     5.5816     0.0140 C.2     
  14 N14            1.1409     5.3280    -1.1290 N.2     
  15 O15            0.9798     4.1329    -1.2584 O.3     
  16 C16            2.0953     6.9201     0.5353 C.ar    
  17 C17            2.8289    -3.1055     0.3729 C.3     
  18 C18            0.7970    -4.4786    -0.1046 C.3     
  19 C19            1.9336    -3.2440    -1.9556 C.3     
  20 C20            1.8248     8.0613    -0.2191 C.ar    
  21 C21            2.1693     9.3041     0.2634 C.ar    
  22 C22            2.7901     9.4215     1.5096 C.ar    
  23 C23            3.0606     8.2772     2.2644 C.ar    
  24 C24            2.7098     7.0361     1.7818 C.ar    
  25 C25            3.1494    10.7133     2.0125 C.1     
  26 N26            3.4344    11.7380     2.4115 N.1     
  27 H27           -0.5328     1.8714    -0.8557 H       
  28 H28           -0.5399     1.8454     0.9268 H       
  29 H29            3.1129    -0.2586     0.1335 H       
  30 H30            2.8152    -0.7119    -1.5647 H       
  31 H31            3.1931     1.7855    -1.1700 H       
  32 H32            1.6737     1.3789    -2.0027 H       
  33 H33            1.8798     1.7755     1.0112 H       
  34 H34            2.5611    -3.0765     1.4291 H       
  35 H35            3.4602    -3.9732     0.1818 H       
  36 H36            3.3709    -2.1969     0.1105 H       
  37 H37           -0.1086    -4.5483    -0.7073 H       
  38 H38            1.4283    -5.3464    -0.2958 H       
  39 H39            0.5292    -4.4497     0.9516 H       
  40 H40            2.3990    -2.2998    -2.2384 H       
  41 H41            2.6337    -4.0609    -2.1307 H       
  42 H42            1.0360    -3.4002    -2.5538 H       
  43 H43            1.3452     7.9703    -1.1825 H       
  44 H44            1.9600    10.1877    -0.3213 H       
  45 H45            3.5407     8.3664     3.2277 H       
  46 H46            2.9147     6.1518     2.3670 H       
@<TRIPOS>BOND
   1    1    2 1
   2    1    6 1
   3    1   27 1
   4    1   28 1
   5    2    9 1
   6    2    3 2
   7    3    4 1
   8    3    7 1
   9    4    5 1
  10    4   29 1
  11    4   30 1
  12    5    6 1
  13    5   31 1
  14    5   32 1
  15    6   11 1
  16    6   33 1
  17    7    8 1
  18    7   10 1
  19    8    9 2
  20   10   17 1
  21   10   18 1
  22   10   19 1
  23   11   12 2
  24   11   15 1
  25   12   13 1
  26   13   14 2
  27   13   16 1
  28   14   15 1
  29   16   20 ar
  30   16   24 ar
  31   17   34 1
  32   17   35 1
  33   17   36 1
  34   18   37 1
  35   18   38 1
  36   18   39 1
  37   19   40 1
  38   19   41 1
  39   19   42 1
  40   20   21 ar
  41   20   43 1
  42   21   22 ar
  43   21   44 1
  44   22   23 ar
  45   22   25 1
  46   23   24 ar
  47   23   45 1
  48   24   46 1
  49   25   26 3

#	End of record

