#	Name: ASD05430035
#	Creating user name:	WinNT
#	Creation time:	15. 06. 2019 20:59

#	Modifying user name:	WinNT
#	Modification time:	15. 06. 2019 20:59

#	Program:	/corina/corina34_cracker 3.40 0067  02.08.2006

@<TRIPOS>MOLECULE
ASD05430035
  63   69    0    0    0
SMALL
NO_CHARGES


@<TRIPOS>ATOM
   1 C1             0.0678     1.1543     0.4398 C.ar    
   2 C2             0.0194    -0.0124    -0.3261 C.ar    
   3 C3             1.1558    -0.4652    -0.9785 C.ar    
   4 C4             2.3478     0.2266    -0.8825 C.ar    
   5 C5             2.4228     1.3948    -0.1242 C.ar    
   6 C6             1.2710     1.8641     0.5444 C.ar    
   7 C7             4.8746    -0.0471     0.2038 C.3     
   8 C8             4.8545     1.4584     0.0657 C.2     
   9 C9             3.6898     2.1308    -0.0217 C.2     
  10 C10            6.2058    -0.5043     0.7905 C.3     
  11 C11            6.8871     0.5218     1.6934 C.3     
  12 N12            7.1205     1.7479     0.9303 N.pl3   
  13 C13            6.1439     2.1693     0.0299 C.2     
  14 N14           -1.1802    -0.7272    -0.4352 N.pl3   
  15 C15           -1.9826    -1.1192     0.5885 C.2     
  16 C16           -1.7695    -1.1582    -1.5957 C.2     
  17 C17           -2.9006    -1.7989    -1.2441 C.2     
  18 N18           -3.0058    -1.7600     0.0925 N.2     
  19 C19           -3.8807    -2.4445    -2.1894 C.3     
  20 N20           -0.2502     2.9627     1.7453 N.2     
  21 O21           -0.8524     1.8234     1.1642 O.3     
  22 C22            8.3320     2.5503     1.0938 C.3     
  23 C23            8.7305     3.1081    -0.2768 C.3     
  24 O24            7.6257     3.7835    -0.8692 O.3     
  25 N25            6.3791     3.1297    -0.8037 N.2     
  26 C26            8.0633     3.6871     2.0460 C.ar    
  27 C27            9.0203     4.0508     2.9749 C.ar    
  28 C28            8.7752     5.0934     3.8483 C.ar    
  29 C29            7.5706     5.7737     3.7927 C.ar    
  30 C30            6.6128     5.4085     2.8619 C.ar    
  31 C31            6.8622     4.3690     1.9860 C.ar    
  32 F32            7.3297     6.7928     4.6463 F       
  33 C33            1.0005     3.0188     1.4000 C.2     
  34 C34            6.1457    -1.9105     1.4105 C.3     
  35 O35            7.4049    -2.1326     0.7432 O.3     
  36 C36            7.1535    -1.1194    -0.2520 C.3     
  37 C37            9.8929     4.0884    -0.1074 C.3     
  38 H38            1.1089    -1.3689    -1.5680 H       
  39 H39            3.2248    -0.1387    -1.3961 H       
  40 H40            4.0636    -0.3603     0.8613 H       
  41 H41            4.7372    -0.5017    -0.7773 H       
  42 H42            3.6880     3.2108    -0.0164 H       
  43 H43            6.2450     0.7400     2.5468 H       
  44 H44            7.8393     0.1237     2.0441 H       
  45 H45           -1.8037    -0.9323     1.6370 H       
  46 H46           -1.3980    -1.0118    -2.5991 H       
  47 H47           -3.5966    -3.4840    -2.3533 H       
  48 H48           -4.8811    -2.4049    -1.7583 H       
  49 H49           -3.8734    -1.9116    -3.1402 H       
  50 H50            9.1359     1.9261     1.4840 H       
  51 H51            9.0425     2.2885    -0.9240 H       
  52 H52            9.9597     3.5198     3.0183 H       
  53 H53            9.5229     5.3772     4.5741 H       
  54 H54            5.6728     5.9384     2.8176 H       
  55 H55            6.1153     4.0839     1.2599 H       
  56 H56            1.7102     3.7794     1.6902 H       
  57 H57            6.2157    -1.9165     2.4982 H       
  58 H58            5.3303    -2.5258     1.0303 H       
  59 H59            6.6476    -1.4918    -1.1428 H       
  60 H60            8.0209    -0.4998    -0.4797 H       
  61 H61           10.7432     3.5704     0.3362 H       
  62 H62           10.1777     4.4862    -1.0814 H       
  63 H63            9.5860     4.9069     0.5438 H       
@<TRIPOS>BOND
   1    1    2 ar
   2    1    6 ar
   3    1   21 1
   4    2    3 ar
   5    2   14 1
   6    3    4 ar
   7    3   38 1
   8    4    5 ar
   9    4   39 1
  10    5    6 ar
  11    5    9 1
  12    6   33 1
  13    7    8 1
  14    7   10 1
  15    7   40 1
  16    7   41 1
  17    8    9 2
  18    8   13 1
  19    9   42 1
  20   10   11 1
  21   10   34 1
  22   10   36 1
  23   11   12 1
  24   11   43 1
  25   11   44 1
  26   12   13 1
  27   12   22 1
  28   13   25 2
  29   14   15 1
  30   14   16 1
  31   15   18 2
  32   15   45 1
  33   16   17 2
  34   16   46 1
  35   17   18 1
  36   17   19 1
  37   19   47 1
  38   19   48 1
  39   19   49 1
  40   20   21 1
  41   20   33 2
  42   22   23 1
  43   22   26 1
  44   22   50 1
  45   23   24 1
  46   23   37 1
  47   23   51 1
  48   24   25 1
  49   26   27 ar
  50   26   31 ar
  51   27   28 ar
  52   27   52 1
  53   28   29 ar
  54   28   53 1
  55   29   30 ar
  56   29   32 1
  57   30   31 ar
  58   30   54 1
  59   31   55 1
  60   33   56 1
  61   34   35 1
  62   34   57 1
  63   34   58 1
  64   35   36 1
  65   36   59 1
  66   36   60 1
  67   37   61 1
  68   37   62 1
  69   37   63 1

#	End of record

