#	Name: ASD00840678
#	Creating user name:	WinNT
#	Creation time:	15. 06. 2019 18:39

#	Modifying user name:	WinNT
#	Modification time:	15. 06. 2019 18:39

#	Program:	/corina/corina34_cracker 3.40 0067  02.08.2006

@<TRIPOS>MOLECULE
ASD00840678
  92   97    0    0    0
SMALL
NO_CHARGES


@<TRIPOS>ATOM
   1 N1             1.0667     1.4584    -0.7464 N.ar    
   2 C2             1.3273     0.1664    -0.8552 C.ar    
   3 C3             1.2457    -0.6679     0.2525 C.ar    
   4 C4             0.8873    -0.1295     1.4758 C.ar    
   5 C5             0.6218     1.2312     1.5482 C.ar    
   6 C6             0.7225     2.0006     0.4064 C.ar    
   7 C7             1.5431    -2.1396     0.1236 C.3     
   8 C8             1.2604    -2.8544     1.4279 C.2     
   9 C9             0.7233    -2.7535    -1.0130 C.3     
  10 C10           -0.7388    -2.4634    -0.7913 C.2     
  11 N11           -1.6629    -2.9847    -1.6224 N.am    
  12 O12           -1.0840    -1.7607     0.1351 O.2     
  13 C13           -3.0803    -2.6221    -1.4879 C.3     
  14 C14           -3.9086    -3.9055    -1.3707 C.3     
  15 C15           -3.6030    -4.8156    -2.5625 C.3     
  16 C16           -2.1204    -5.1948    -2.5501 C.3     
  17 C17           -1.2711    -3.9217    -2.6842 C.3     
  18 C18           -4.4542    -6.0834    -2.4671 C.3     
  19 C19           -5.9380    -5.7058    -2.4812 C.3     
  20 C20           -6.7842    -6.9805    -2.4470 C.3     
  21 N21           -6.4620    -7.8148    -3.6117 N.3     
  22 C22           -5.0532    -8.2290    -3.5947 C.3     
  23 C23           -4.1554    -6.9916    -3.6632 C.3     
  24 C24           -7.3526    -8.9806    -3.6868 C.3     
  25 O25            0.1881    -2.9307     1.9894 O.2     
  26 N26            2.4196    -3.3889     1.8463 N.am    
  27 C27            3.0208    -2.3638    -0.1039 C.ar    
  28 C28            3.4713    -3.1217     0.9743 C.ar    
  29 C29            3.8783    -1.9735    -1.1010 C.ar    
  30 C30            5.2280    -2.3386    -1.0410 C.ar    
  31 C31            5.6879    -3.1005     0.0399 C.ar    
  32 C32            4.8160    -3.4876     1.0349 C.ar    
  33 F33            6.9890    -3.4582     0.1071 F       
  34 C34            2.2854    -5.9545     2.8332 C.ar    
  35 C35            1.0318    -6.3543     2.3941 C.ar    
  36 C36            3.3049    -6.8805     2.9444 C.ar    
  37 C37            3.0765    -8.2043     2.6180 C.ar    
  38 C38            1.8276    -8.6054     2.1801 C.ar    
  39 C39            0.8051    -7.6837     2.0676 C.ar    
  40 H40            1.6517    -9.6401     1.9257 H       
  41 O41            0.0273    -5.4456     2.2843 O.3     
  42 C42           -1.2370    -5.9284     1.8257 C.3     
  43 C43           -7.1584    -9.6850    -5.0310 C.3     
  44 O44            1.6773    -0.3493    -2.0604 O.3     
  45 C45            2.1707    -0.1850    -4.4205 C.3     
  46 C46            1.6356     0.5358    -3.1816 C.3     
  47 S47            2.5794    -4.2660     3.2418 S.o2    
  48 O48            3.9469    -4.1763     3.6176 O.2     
  49 O49            1.5123    -3.8670     4.0910 O.2     
  50 C50            6.1312    -1.9367    -2.0769 C.1     
  51 N51            6.8477    -1.6179    -2.8988 N.1     
  52 H52            0.8153    -0.7537     2.3542 H       
  53 H53            0.3391     1.6830     2.4875 H       
  54 H54            0.5174     3.0597     0.4573 H       
  55 H55            1.0393    -2.3223    -1.9629 H       
  56 H56            0.8807    -3.8319    -1.0332 H       
  57 H57           -3.2188    -2.0149    -0.5933 H       
  58 H58           -3.3988    -2.0605    -2.3661 H       
  59 H59           -3.6527    -4.4204    -0.4447 H       
  60 H60           -4.9694    -3.6548    -1.3669 H       
  61 H61           -3.8359    -4.2910    -3.4892 H       
  62 H62           -1.8813    -5.6976    -1.6130 H       
  63 H63           -1.9085    -5.8618    -3.3858 H       
  64 H64           -1.4433    -3.4687    -3.6605 H       
  65 H65           -0.2160    -4.1733    -2.5768 H       
  66 H66           -4.2211    -6.6099    -1.5416 H       
  67 H67           -6.1662    -5.0941    -1.6083 H       
  68 H68           -6.1621    -5.1445    -3.3883 H       
  69 H69           -6.5697    -7.5344    -1.5330 H       
  70 H70           -7.8412    -6.7155    -2.4713 H       
  71 H71           -4.8469    -8.7770    -2.6754 H       
  72 H72           -4.8530    -8.8708    -4.4527 H       
  73 H73           -4.3515    -6.4505    -4.5889 H       
  74 H74           -3.1099    -7.2985    -3.6348 H       
  75 H75           -7.1163    -9.6711    -2.8772 H       
  76 H76           -8.3882    -8.6532    -3.5944 H       
  77 H77            3.5127    -1.3862    -1.9304 H       
  78 H78            5.1761    -4.0754     1.8663 H       
  79 H79            4.2811    -6.5697     3.2862 H       
  80 H80            3.8749    -8.9264     2.7050 H       
  81 H81           -0.1703    -7.9975     1.7262 H       
  82 H82           -1.9477    -5.1030     1.7840 H       
  83 H83           -1.1223    -6.3597     0.8313 H       
  84 H84           -1.6055    -6.6907     2.5121 H       
  85 H85           -6.1228   -10.0124    -5.1234 H       
  86 H86           -7.8193   -10.5500    -5.0867 H       
  87 H87           -7.3947    -8.9945    -5.8406 H       
  88 H88            2.2209     0.5148    -5.2547 H       
  89 H89            3.1674    -0.5742    -4.2123 H       
  90 H90            1.5052    -1.0092    -4.6772 H       
  91 H91            0.6067     0.8487    -3.3593 H       
  92 H92            2.2514     1.4114    -2.9763 H       
@<TRIPOS>BOND
   1    1    2 ar
   2    1    6 ar
   3    2    3 ar
   4    2   44 1
   5    3    4 ar
   6    3    7 1
   7    4    5 ar
   8    4   52 1
   9    5    6 ar
  10    5   53 1
  11    6   54 1
  12    7    8 1
  13    7    9 1
  14    7   27 1
  15    8   25 2
  16    8   26 am
  17    9   10 1
  18    9   55 1
  19    9   56 1
  20   10   11 am
  21   10   12 2
  22   11   13 1
  23   11   17 1
  24   13   14 1
  25   13   57 1
  26   13   58 1
  27   14   15 1
  28   14   59 1
  29   14   60 1
  30   15   16 1
  31   15   18 1
  32   15   61 1
  33   16   17 1
  34   16   62 1
  35   16   63 1
  36   17   64 1
  37   17   65 1
  38   18   19 1
  39   18   23 1
  40   18   66 1
  41   19   20 1
  42   19   67 1
  43   19   68 1
  44   20   21 1
  45   20   69 1
  46   20   70 1
  47   21   22 1
  48   21   24 1
  49   22   23 1
  50   22   71 1
  51   22   72 1
  52   23   73 1
  53   23   74 1
  54   24   43 1
  55   24   75 1
  56   24   76 1
  57   26   47 am
  58   26   28 1
  59   27   28 ar
  60   27   29 ar
  61   28   32 ar
  62   29   30 ar
  63   29   77 1
  64   30   31 ar
  65   30   50 1
  66   31   32 ar
  67   31   33 1
  68   32   78 1
  69   34   35 ar
  70   34   36 ar
  71   34   47 1
  72   35   41 1
  73   35   39 ar
  74   36   37 ar
  75   36   79 1
  76   37   38 ar
  77   37   80 1
  78   38   39 ar
  79   38   40 1
  80   39   81 1
  81   41   42 1
  82   42   82 1
  83   42   83 1
  84   42   84 1
  85   43   85 1
  86   43   86 1
  87   43   87 1
  88   44   46 1
  89   45   46 1
  90   45   88 1
  91   45   89 1
  92   45   90 1
  93   46   91 1
  94   46   92 1
  95   47   48 2
  96   47   49 2
  97   50   51 3

#	End of record

