#	Name: ASD03731633
#	Creating user name:	WinNT
#	Creation time:	15. 06. 2019 20:46

#	Modifying user name:	WinNT
#	Modification time:	15. 06. 2019 20:46

#	Program:	/corina/corina34_cracker 3.40 0067  02.08.2006

@<TRIPOS>MOLECULE
ASD03731633
  33   34    0    0    0
SMALL
NO_CHARGES


@<TRIPOS>ATOM
   1 C1            -0.0179     1.4702     0.0101 C.2     
   2 C2             0.0021    -0.0041     0.0020 C.ar    
   3 C3             1.2225    -0.6896    -0.0133 C.ar    
   4 C4             1.2360    -2.0698    -0.0209 C.ar    
   5 C5             0.0415    -2.7777    -0.0133 C.ar    
   6 C6            -1.1747    -2.0994     0.0014 C.ar    
   7 C7            -1.1979    -0.7218     0.0154 C.ar    
   8 O8             1.0268     2.0925     0.0035 O.2     
   9 N9            -1.1941     2.1281     0.0193 N.am    
  10 O10            0.0593    -4.1348    -0.0209 O.3     
  11 C11            1.2685    -4.7576    -0.0357 C.ar    
  12 C12            1.8980    -5.0824     1.1585 C.ar    
  13 C13            3.1280    -5.7158     1.1410 C.ar    
  14 C14            3.7313    -6.0253    -0.0661 C.ar    
  15 C15            3.1054    -5.7024    -1.2580 C.ar    
  16 C16            1.8725    -5.0745    -1.2452 C.ar    
  17 F17            1.2595    -4.7646    -2.4086 F       
  18 F18            4.9328    -6.6430    -0.0808 F       
  19 F19            1.3102    -4.7798     2.3366 F       
  20 S20           -1.2166     3.7840     0.0284 S.o2    
  21 O21           -2.5980     4.1155     0.0625 O.2     
  22 O22           -0.3511     4.1403     1.0975 O.2     
  23 C23           -0.4880     4.2553    -1.5646 C.3     
  24 F24           -2.3338    -2.7934     0.0078 F       
  25 F25            2.3851    -0.0014    -0.0211 F       
  26 H26            2.1769    -2.5999    -0.0331 H       
  27 H27           -2.1417    -0.1970     0.0317 H       
  28 H28           -2.0275     1.6318     0.0205 H       
  29 H29            3.6180    -5.9686     2.0697 H       
  30 H30            3.5778    -5.9448    -2.1985 H       
  31 H31           -1.0900     3.8446    -2.3752 H       
  32 H32           -0.4628     5.3420    -1.6453 H       
  33 H33            0.5266     3.8625    -1.6305 H       
@<TRIPOS>BOND
   1    1    2 1
   2    1    8 2
   3    1    9 am
   4    2    3 ar
   5    2    7 ar
   6    3    4 ar
   7    3   25 1
   8    4    5 ar
   9    4   26 1
  10    5    6 ar
  11    5   10 1
  12    6    7 ar
  13    6   24 1
  14    7   27 1
  15    9   20 am
  16    9   28 1
  17   10   11 1
  18   11   12 ar
  19   11   16 ar
  20   12   13 ar
  21   12   19 1
  22   13   14 ar
  23   13   29 1
  24   14   15 ar
  25   14   18 1
  26   15   16 ar
  27   15   30 1
  28   16   17 1
  29   20   21 2
  30   20   22 2
  31   20   23 1
  32   23   31 1
  33   23   32 1
  34   23   33 1

#	End of record

