#	Name: ASD01880870
#	Creating user name:	WinNT
#	Creation time:	15. 06. 2019 19:41

#	Modifying user name:	WinNT
#	Modification time:	15. 06. 2019 19:41

#	Program:	/corina/corina34_cracker 3.40 0067  02.08.2006

@<TRIPOS>MOLECULE
ASD01880870
  52   55    0    0    0
SMALL
NO_CHARGES


@<TRIPOS>ATOM
   1 N1             0.0045     1.3315    -0.1715 N.ar    
   2 C2             0.0079     0.0098    -0.1812 C.ar    
   3 N3             1.1228    -0.6848    -0.0185 N.ar    
   4 C4             2.2847    -0.0766     0.1613 C.ar    
   5 C5             2.3288     1.3062     0.1787 C.ar    
   6 C6             1.1356     2.0115     0.0043 C.ar    
   7 C7             3.6327     2.0341     0.3813 C.3     
   8 O8             4.6665     1.0893     0.6653 O.3     
   9 C9             5.9126     1.5840     0.8752 C.ar    
  10 C10            6.9657     0.7190     1.1566 C.ar    
  11 C11            8.2258     1.2208     1.3683 C.ar    
  12 C12            8.4593     2.5985     1.3031 C.ar    
  13 C13            7.3982     3.4628     1.0198 C.ar    
  14 C14            6.1370     2.9537     0.8034 C.ar    
  15 C15            9.5531     0.5786     1.6865 C.3     
  16 N16           10.5235     1.6742     1.7919 N.am    
  17 C17            9.8882     2.8377     1.5700 C.2     
  18 O18           10.4177     3.9321     1.5868 O.2     
  19 C19            7.6347     4.9494     0.9469 C.3     
  20 C20            1.1290     3.4945     0.0143 C.ar    
  21 C21            2.0938     4.2032    -0.6996 C.ar    
  22 C22            2.0825     5.5832    -0.6870 C.ar    
  23 C23            1.1160     6.2630     0.0322 C.ar    
  24 C24            0.1560     5.5649     0.7425 C.ar    
  25 C25            0.1544     4.1849     0.7329 C.ar    
  26 O26           -1.1605    -0.6513    -0.3620 O.3     
  27 C27           -1.1043    -2.0792    -0.3646 C.3     
  28 C28           12.7294     1.3575     0.7845 C.3     
  29 C29           11.9499     1.5246     2.0904 C.3     
  30 H30            3.1882    -0.6534     0.2934 H       
  31 H31            3.8845     2.5872    -0.5235 H       
  32 H32            3.5354     2.7281     1.2162 H       
  33 H33            6.7918    -0.3456     1.2087 H       
  34 H34            5.3175     3.6222     0.5841 H       
  35 H35            9.4917     0.0402     2.6323 H       
  36 H36            9.8418    -0.1018     0.8854 H       
  37 H37            7.8936     5.2264    -0.0750 H       
  38 H38            6.7293     5.4765     1.2480 H       
  39 H39            8.4521     5.2204     1.6150 H       
  40 H40            2.8490     3.6734    -1.2611 H       
  41 H41            2.8298     6.1333    -1.2395 H       
  42 H42            1.1112     7.3430     0.0395 H       
  43 H43           -0.5959     6.1009     1.3026 H       
  44 H44           -0.5958     3.6408     1.2876 H       
  45 H45           -0.4500    -2.4156    -1.1688 H       
  46 H46           -0.7145    -2.4292     0.5913 H       
  47 H47           -2.1054    -2.4820    -0.5182 H       
  48 H48           13.7907     1.2462     1.0065 H       
  49 H49           12.3731     0.4712     0.2595 H       
  50 H50           12.5797     2.2362     0.1570 H       
  51 H51           12.3062     2.4109     2.6153 H       
  52 H52           12.0996     0.6459     2.7178 H       
@<TRIPOS>BOND
   1    1    2 ar
   2    1    6 ar
   3    2    3 ar
   4    2   26 1
   5    3    4 ar
   6    4    5 ar
   7    4   30 1
   8    5    6 ar
   9    5    7 1
  10    6   20 1
  11    7    8 1
  12    7   31 1
  13    7   32 1
  14    8    9 1
  15    9   10 ar
  16    9   14 ar
  17   10   11 ar
  18   10   33 1
  19   11   12 ar
  20   11   15 1
  21   12   13 ar
  22   12   17 1
  23   13   14 ar
  24   13   19 1
  25   14   34 1
  26   15   16 1
  27   15   35 1
  28   15   36 1
  29   16   17 am
  30   16   29 1
  31   17   18 2
  32   19   37 1
  33   19   38 1
  34   19   39 1
  35   20   21 ar
  36   20   25 ar
  37   21   22 ar
  38   21   40 1
  39   22   23 ar
  40   22   41 1
  41   23   24 ar
  42   23   42 1
  43   24   25 ar
  44   24   43 1
  45   25   44 1
  46   26   27 1
  47   27   45 1
  48   27   46 1
  49   27   47 1
  50   28   29 1
  51   28   48 1
  52   28   49 1
  53   28   50 1
  54   29   51 1
  55   29   52 1

#	End of record

