#	Name: ASD02030319
#	Creating user name:	WinNT
#	Creation time:	15. 06. 2019 20:15

#	Modifying user name:	WinNT
#	Modification time:	15. 06. 2019 20:15

#	Program:	/corina/corina34_cracker 3.40 0067  02.08.2006

@<TRIPOS>MOLECULE
ASD02030319
  50   54    0    0    0
SMALL
NO_CHARGES


@<TRIPOS>ATOM
   1 N1             0.2229     1.7199    -0.2545 N.am    
   2 C2             0.3665     0.2554    -0.2859 C.3     
   3 C3            -0.4592    -0.3425     0.8593 C.3     
   4 N4            -1.8231     0.2005     0.8009 N.am    
   5 C5            -2.0056     1.6603     0.8465 C.3     
   6 C6            -1.1285     2.2860    -0.2334 C.3     
   7 C7             1.3073     2.5201    -0.2397 C.2     
   8 C8             2.6561     1.9345    -0.0869 C.2     
   9 N9             3.7969     2.5815    -0.1913 N.2     
  10 N10            2.9332     0.6469     0.1893 N.2     
  11 C11            4.2357     0.5323     0.2432 C.2     
  12 N12            4.7624     1.7507     0.0031 N.pl3   
  13 C13            6.1288     2.0604    -0.0300 C.ar    
  14 O14            1.1763     3.7234    -0.3521 O.2     
  15 C15           -2.8866    -0.6221     0.7071 C.2     
  16 C16           -4.2442    -0.0784     0.8019 C.2     
  17 O17           -2.7195    -1.8166     0.5435 O.2     
  18 C18           -5.4012    -0.8047     0.8033 C.2     
  19 C19            6.5408     3.3601    -0.2895 C.ar    
  20 C20            7.8906     3.6626    -0.3210 C.ar    
  21 C21            8.8286     2.6695    -0.0939 C.ar    
  22 C22            8.4189     1.3744     0.1642 C.ar    
  23 C23            7.0727     1.0685     0.2024 C.ar    
  24 F24            8.2935     4.9271    -0.5738 F       
  25 C25           -1.1567     3.8178    -0.2403 C.3     
  26 C26           -1.1669     3.7281    -1.7765 C.3     
  27 C27           -1.7904     2.3307    -1.6147 C.3     
  28 O28           -4.5697     1.2270     0.9091 O.3     
  29 C29           -5.9024     1.3490     0.9731 C.2     
  30 C30           -6.4554     0.1150     0.9107 C.2     
  31 Br31          -8.3014    -0.2925     0.9586 Br      
  32 Br32          -6.8535     2.9758     1.1302 Br      
  33 H33            0.0015    -0.1276    -1.2389 H       
  34 H34            1.4156    -0.0122    -0.1590 H       
  35 H35           -0.4938    -1.4271     0.7563 H       
  36 H36           -0.0027    -0.0800     1.8136 H       
  37 H37           -3.0512     1.9061     0.6615 H       
  38 H38           -1.7060     2.0379     1.8242 H       
  39 H39            4.7886    -0.3730     0.4459 H       
  40 H40           -5.4878    -1.8791     0.7346 H       
  41 H41            5.8089     4.1342    -0.4668 H       
  42 H42            9.8819     2.9069    -0.1188 H       
  43 H43            9.1526     0.6016     0.3402 H       
  44 H44            6.7542     0.0565     0.4041 H       
  45 H45           -2.0699     4.2401     0.1789 H       
  46 H46           -0.2531     4.2734     0.1649 H       
  47 H47           -1.8313     4.4501    -2.2513 H       
  48 H48           -0.1711     3.7131    -2.2194 H       
  49 H49           -1.3956     1.5924    -2.3127 H       
  50 H50           -2.8798     2.3398    -1.5773 H       
@<TRIPOS>BOND
   1    1    2 1
   2    1    7 am
   3    1    6 1
   4    2    3 1
   5    2   33 1
   6    2   34 1
   7    3    4 1
   8    3   35 1
   9    3   36 1
  10    4    5 1
  11    4   15 am
  12    5    6 1
  13    5   37 1
  14    5   38 1
  15    6   25 1
  16    6   27 1
  17    7    8 1
  18    7   14 2
  19    8    9 2
  20    8   10 1
  21    9   12 1
  22   10   11 2
  23   11   12 1
  24   11   39 1
  25   12   13 1
  26   13   19 ar
  27   13   23 ar
  28   15   16 1
  29   15   17 2
  30   16   28 1
  31   16   18 2
  32   18   30 1
  33   18   40 1
  34   19   20 ar
  35   19   41 1
  36   20   21 ar
  37   20   24 1
  38   21   22 ar
  39   21   42 1
  40   22   23 ar
  41   22   43 1
  42   23   44 1
  43   25   26 1
  44   25   45 1
  45   25   46 1
  46   26   27 1
  47   26   47 1
  48   26   48 1
  49   27   49 1
  50   27   50 1
  51   28   29 1
  52   29   30 2
  53   29   32 1
  54   30   31 1

#	End of record

