#	Name: ASD01708026
#	Creating user name:	WinNT
#	Creation time:	15. 06. 2019 19:22

#	Modifying user name:	WinNT
#	Modification time:	15. 06. 2019 19:22

#	Program:	/corina/corina34_cracker 3.40 0067  02.08.2006

@<TRIPOS>MOLECULE
ASD01708026
  65   66    0    0    0
SMALL
NO_CHARGES


@<TRIPOS>ATOM
   1 C1             0.1146     1.9546    -0.0191 C.ar    
   2 C2             0.1155     0.5691     0.0469 C.ar    
   3 C3             1.3110     2.6431    -0.0774 C.ar    
   4 C4             2.5085     1.9523    -0.0705 C.ar    
   5 C5             2.5121     0.5709    -0.0047 C.ar    
   6 C6             1.3187    -0.1220     0.0542 C.ar    
   7 C7             3.8192    -0.1790     0.0027 C.3     
   8 C8             4.3554    -0.2834    -1.4265 C.3     
   9 C9             5.6161    -1.1503    -1.4362 C.3     
  10 C10            6.1441    -1.2531    -2.8439 C.ar    
  11 C11            7.0583    -0.3233    -3.3056 C.ar    
  12 C12            5.7165    -2.2803    -3.6659 C.ar    
  13 C13            6.1965    -2.3817    -4.9568 C.ar    
  14 C14            7.1162    -1.4431    -5.4322 C.ar    
  15 C15            7.5471    -0.4112    -4.5941 C.ar    
  16 Cl16           8.6893     0.7608    -5.1734 Cl      
  17 Cl17           5.6592    -3.6723    -5.9861 Cl      
  18 C18            7.6348    -1.5448    -6.8113 C.2     
  19 N19            8.7498    -2.2596    -7.0610 N.am    
  20 O20            7.0560    -0.9837    -7.7213 O.2     
  21 C21            9.2642    -2.3604    -8.4290 C.3     
  22 C22            8.5589    -3.4803    -9.1496 C.2     
  23 O23            8.8700    -3.7585   -10.4254 O.3     
  24 O24            7.7132    -4.1278    -8.5791 O.2     
  25 C25           10.7668    -2.6462    -8.3891 C.3     
  26 C26           11.4966    -1.4529    -7.7691 C.3     
  27 C27           12.9605    -1.7798    -7.6236 C.2     
  28 O28           -1.0600    -0.1104     0.1048 O.3     
  29 O29            4.7643     0.5191     0.8161 O.3     
  30 N30           13.8299    -1.2791    -8.4649 N.2     
  31 N31           13.3783    -2.5943    -6.6190 N.pl3   
  32 C32           13.4040    -0.5583    -9.5304 C.1     
  33 N33           13.0470     0.0460   -10.4236 N.1     
  34 C34           14.8014    -2.9121    -6.4775 C.3     
  35 C35           14.9999    -3.8403    -5.2776 C.3     
  36 O36           14.3567    -5.0909    -5.5313 O.3     
  37 C37           14.4824    -6.0357    -4.4665 C.3     
  38 H38           -0.8207     2.4945    -0.0294 H       
  39 H39            1.3108     3.7219    -0.1288 H       
  40 H40            3.4426     2.4922    -0.1168 H       
  41 H41            1.3221    -1.2007     0.1062 H       
  42 H42            3.6619    -1.1794     0.4057 H       
  43 H43            3.5981    -0.7363    -2.0665 H       
  44 H44            4.5964     0.7126    -1.7978 H       
  45 H45            6.3733    -0.6974    -0.7963 H       
  46 H46            5.3750    -2.1463    -1.0649 H       
  47 H47            7.3904     0.4737    -2.6568 H       
  48 H48            5.0056    -3.0049    -3.2971 H       
  49 H49            9.2116    -2.7073    -6.3349 H       
  50 H50            9.0867    -1.4218    -8.9540 H       
  51 H51            8.3908    -4.4857   -10.8456 H       
  52 H52           10.9514    -3.5369    -7.7886 H       
  53 H53           11.1327    -2.8092    -9.4028 H       
  54 H54           11.3812    -0.5816    -8.4138 H       
  55 H55           11.0731    -1.2377    -6.7881 H       
  56 H56           -1.4194    -0.3491    -0.7606 H       
  57 H57            4.9531     1.4186     0.5157 H       
  58 H58           12.7342    -2.9653    -5.9957 H       
  59 H59           15.1549    -3.4070    -7.3821 H       
  60 H60           15.3654    -1.9923    -6.3226 H       
  61 H61           16.0655    -4.0055    -5.1183 H       
  62 H62           14.5663    -3.3825    -4.3885 H       
  63 H63           13.9678    -6.9579    -4.7364 H       
  64 H64           15.5373    -6.2464    -4.2905 H       
  65 H65           14.0381    -5.6234    -3.5606 H       
@<TRIPOS>BOND
   1    1    2 ar
   2    1    3 ar
   3    1   38 1
   4    2   28 1
   5    2    6 ar
   6    3    4 ar
   7    3   39 1
   8    4    5 ar
   9    4   40 1
  10    5    6 ar
  11    5    7 1
  12    6   41 1
  13    7    8 1
  14    7   29 1
  15    7   42 1
  16    8    9 1
  17    8   43 1
  18    8   44 1
  19    9   10 1
  20    9   45 1
  21    9   46 1
  22   10   11 ar
  23   10   12 ar
  24   11   15 ar
  25   11   47 1
  26   12   13 ar
  27   12   48 1
  28   13   14 ar
  29   13   17 1
  30   14   15 ar
  31   14   18 1
  32   15   16 1
  33   18   19 am
  34   18   20 2
  35   19   21 1
  36   19   49 1
  37   21   22 1
  38   21   25 1
  39   21   50 1
  40   22   23 1
  41   22   24 2
  42   23   51 1
  43   25   26 1
  44   25   52 1
  45   25   53 1
  46   26   27 1
  47   26   54 1
  48   26   55 1
  49   27   30 2
  50   27   31 1
  51   28   56 1
  52   29   57 1
  53   30   32 1
  54   31   34 1
  55   31   58 1
  56   32   33 3
  57   34   35 1
  58   34   59 1
  59   34   60 1
  60   35   36 1
  61   35   61 1
  62   35   62 1
  63   36   37 1
  64   37   63 1
  65   37   64 1
  66   37   65 1

#	End of record

