#	Name: ASD01148637
#	Creating user name:	WinNT
#	Creation time:	15. 06. 2019 19:02

#	Modifying user name:	WinNT
#	Modification time:	15. 06. 2019 19:02

#	Program:	/corina/corina34_cracker 3.40 0067  02.08.2006

@<TRIPOS>MOLECULE
ASD01148637
  58   62    0    0    0
SMALL
NO_CHARGES


@<TRIPOS>ATOM
   1 C1            -0.0169     1.4355    -0.0251 C.ar    
   2 C2             0.0192     0.0536    -0.0358 C.ar    
   3 C3            -1.1593    -0.6687    -0.0207 C.ar    
   4 C4            -2.3740    -0.0092     0.0055 C.ar    
   5 C5            -2.4101     1.3726     0.0171 C.ar    
   6 C6            -1.2315     2.0949     0.0064 C.ar    
   7 C7            -3.7342     2.0916     0.0451 C.3     
   8 O8            -4.7238     1.3227     0.7585 O.3     
   9 C9            -3.6498     3.3741     0.9067 C.3     
  10 C10           -4.1236     2.8912     2.2643 C.2     
  11 N11           -4.7055     1.7481     2.1068 N.2     
  12 C12           -3.9497     3.6024     3.5424 C.ar    
  13 C13           -4.4574     3.0206     4.7825 C.ar    
  14 C14           -3.2974     4.8271     3.5772 C.ar    
  15 C15           -3.1202     5.5168     4.7636 C.ar    
  16 C16           -3.5870     5.0138     5.9700 C.ar    
  17 C17           -4.2762     3.7261     5.9957 C.ar    
  18 C18           -3.3834     5.7715     7.2183 C.2     
  19 O19           -3.8851     5.3814     8.2550 O.2     
  20 N20           -2.6413     6.8965     7.2103 N.am    
  21 C21           -4.7634     3.1800     7.1899 C.ar    
  22 C22           -5.1162     1.7846     4.7956 C.ar    
  23 C23           -4.2092     2.4140    -1.3731 C.3     
  24 F24           -4.3419     1.2270    -2.1016 F       
  25 F25           -5.4458     3.0655    -1.3139 F       
  26 F26           -3.2742     3.2442    -2.0006 F       
  27 C27           -2.4389     7.6493     8.4506 C.3     
  28 C28           -1.5794     8.8554     8.1717 C.2     
  29 C29           -2.0901    10.0634     7.9155 C.2     
  30 S30           -0.7484    11.1740     7.6493 S.3     
  31 C31            0.3659     9.9035     7.9091 C.2     
  32 N32           -0.2625     8.8063     8.1661 N.2     
  33 C33           -5.5738     1.2781     5.9757 C.ar    
  34 C34           -5.4004     1.9748     7.1686 C.ar    
  35 C35            1.2678     2.2229    -0.0416 C.3     
  36 F36            2.3544     1.3421    -0.0668 F       
  37 F37            1.3012     3.0372    -1.1788 F       
  38 F38            1.3406     3.0206     1.1054 F       
  39 C39           -1.1200    -2.1751    -0.0333 C.3     
  40 F40            0.2105    -2.6067    -0.0602 F       
  41 F41           -1.7468    -2.6676     1.1163 F       
  42 F42           -1.7871    -2.6496    -1.1678 F       
  43 H43            0.9681    -0.4616    -0.0563 H       
  44 H44           -3.2947    -0.5736     0.0165 H       
  45 H45           -1.2597     3.1745     0.0154 H       
  46 H46           -2.6232     3.7365     0.9615 H       
  47 H47           -4.3134     4.1461     0.5173 H       
  48 H48           -2.9197     5.2507     2.6584 H       
  49 H49           -2.6071     6.4670     4.7506 H       
  50 H50           -2.2410     7.2076     6.3833 H       
  51 H51           -4.6349     3.7102     8.1220 H       
  52 H52           -5.2612     1.2364     3.8765 H       
  53 H53           -3.4039     7.9732     8.8406 H       
  54 H54           -1.9452     7.0133     9.1853 H       
  55 H55           -3.1398    10.3146     7.8781 H       
  56 H56            1.4403    10.0056     7.8687 H       
  57 H57           -6.0817     0.3250     5.9848 H       
  58 H58           -5.7757     1.5546     8.0900 H       
@<TRIPOS>BOND
   1    1    2 ar
   2    1   35 1
   3    1    6 ar
   4    2    3 ar
   5    2   43 1
   6    3    4 ar
   7    3   39 1
   8    4    5 ar
   9    4   44 1
  10    5    6 ar
  11    5    7 1
  12    6   45 1
  13    7    8 1
  14    7    9 1
  15    7   23 1
  16    8   11 1
  17    9   10 1
  18    9   46 1
  19    9   47 1
  20   10   11 2
  21   10   12 1
  22   12   13 ar
  23   12   14 ar
  24   13   22 ar
  25   13   17 ar
  26   14   15 ar
  27   14   48 1
  28   15   16 ar
  29   15   49 1
  30   16   17 ar
  31   16   18 1
  32   17   21 ar
  33   18   19 2
  34   18   20 am
  35   20   27 1
  36   20   50 1
  37   21   34 ar
  38   21   51 1
  39   22   33 ar
  40   22   52 1
  41   23   24 1
  42   23   25 1
  43   23   26 1
  44   27   28 1
  45   27   53 1
  46   27   54 1
  47   28   29 2
  48   28   32 1
  49   29   30 1
  50   29   55 1
  51   30   31 1
  52   31   32 2
  53   31   56 1
  54   33   34 ar
  55   33   57 1
  56   34   58 1
  57   35   36 1
  58   35   37 1
  59   35   38 1
  60   39   40 1
  61   39   41 1
  62   39   42 1

#	End of record

