#	Name: ASD06350025
#	Creating user name:	WinNT
#	Creation time:	15. 06. 2019 21:06

#	Modifying user name:	WinNT
#	Modification time:	15. 06. 2019 21:06

#	Program:	/corina/corina34_cracker 3.40 0067  02.08.2006

@<TRIPOS>MOLECULE
ASD06350025
  47   50    0    0    0
SMALL
NO_CHARGES


@<TRIPOS>ATOM
   1 F1             3.0196     1.3643    -1.0220 F       
   2 C2             2.2948     2.4864    -0.8197 C.ar    
   3 C3             2.8752     3.7285    -1.0138 C.ar    
   4 C4             2.1370     4.8778    -0.8074 C.ar    
   5 C5             0.8117     4.7879    -0.4054 C.ar    
   6 C6             0.2293     3.5397    -0.2111 C.ar    
   7 C7             0.9709     2.3923    -0.4241 C.ar    
   8 F8            -1.0605     3.4485     0.1803 F       
   9 N9             0.0616     5.9527    -0.1951 N.am    
  10 C10           -0.6371     6.4911    -1.2246 C.2     
  11 C11           -1.3758     7.6184    -1.0602 C.2     
  12 C12           -1.4271     8.2464     0.1838 C.2     
  13 C13           -0.7112     7.6983     1.2469 C.2     
  14 C14            0.0417     6.5163     1.0276 C.2     
  15 O15            0.6759     6.0172     1.9412 O.2     
  16 C16           -0.7398     8.3317     2.5737 C.2     
  17 O17           -1.3014     9.4002     2.7257 O.2     
  18 N18           -0.1439     7.7285     3.6214 N.am    
  19 C19           -0.0408     8.3962     4.8477 C.ar    
  20 C20           -0.0504     7.6748     6.0339 C.ar    
  21 C21            0.0513     8.3333     7.2442 C.ar    
  22 C22            0.1634     9.7147     7.2754 C.ar    
  23 C23            0.1736    10.4383     6.0890 C.ar    
  24 C24            0.0768     9.7798     4.8776 C.ar    
  25 F25            0.2829    11.7846     6.1195 F       
  26 O26            0.2630    10.3620     8.4675 O.3     
  27 C27           -0.8566    10.9292     8.9790 C.ar    
  28 N28           -2.0349    10.7472     8.3890 N.ar    
  29 C29           -3.1288    11.2946     8.8788 C.ar    
  30 N30           -3.1080    12.0401     9.9646 N.ar    
  31 C31           -1.9679    12.2698    10.6131 C.ar    
  32 C32           -0.7907    11.7043    10.1304 C.ar    
  33 N33           -1.9542    13.0555    11.7550 N.pl3   
  34 H34            3.9065     3.7989    -1.3266 H       
  35 H35            2.5912     5.8459    -0.9585 H       
  36 H36            0.5200     1.4224    -0.2739 H       
  37 H37           -0.6052     6.0149    -2.1934 H       
  38 H38           -1.9245     8.0297    -1.8946 H       
  39 H39           -2.0122     9.1437     0.3215 H       
  40 H40            0.2136     6.8319     3.5257 H       
  41 H41           -0.1377     6.5986     6.0106 H       
  42 H42            0.0431     7.7715     8.1665 H       
  43 H43            0.0850    10.3414     3.9551 H       
  44 H44           -4.0696    11.1274     8.3754 H       
  45 H45            0.1506    11.8706    10.6330 H       
  46 H46           -2.7791    13.4426    12.0873 H       
  47 H47           -1.1196    13.2181    12.2218 H       
@<TRIPOS>BOND
   1    1    2 1
   2    2    3 ar
   3    2    7 ar
   4    3    4 ar
   5    3   34 1
   6    4    5 ar
   7    4   35 1
   8    5    6 ar
   9    5    9 1
  10    6    7 ar
  11    6    8 1
  12    7   36 1
  13    9   10 1
  14    9   14 am
  15   10   11 2
  16   10   37 1
  17   11   12 1
  18   11   38 1
  19   12   13 2
  20   12   39 1
  21   13   14 1
  22   13   16 1
  23   14   15 2
  24   16   17 2
  25   16   18 am
  26   18   19 1
  27   18   40 1
  28   19   20 ar
  29   19   24 ar
  30   20   21 ar
  31   20   41 1
  32   21   22 ar
  33   21   42 1
  34   22   23 ar
  35   22   26 1
  36   23   24 ar
  37   23   25 1
  38   24   43 1
  39   26   27 1
  40   27   28 ar
  41   27   32 ar
  42   28   29 ar
  43   29   30 ar
  44   29   44 1
  45   30   31 ar
  46   31   32 ar
  47   31   33 1
  48   32   45 1
  49   33   46 1
  50   33   47 1

#	End of record

