#	Name: ASD01882895
#	Creating user name:	WinNT
#	Creation time:	15. 06. 2019 19:45

#	Modifying user name:	WinNT
#	Modification time:	15. 06. 2019 19:45

#	Program:	/corina/corina34_cracker 3.40 0067  02.08.2006

@<TRIPOS>MOLECULE
ASD01882895
  55   59    0    0    0
SMALL
NO_CHARGES


@<TRIPOS>ATOM
   1 C1             0.0939     1.4439    -0.4410 C.2     
   2 C2             0.1016     0.0418    -0.5388 C.2     
   3 C3             1.1644    -0.6667    -0.1034 C.2     
   4 C4             2.2665     1.3359     0.5449 C.2     
   5 C5             1.1647     2.0888     0.0953 C.2     
   6 C6             1.1720     3.5917     0.2067 C.3     
   7 N7             4.1007     0.5888     1.3319 N.2     
   8 N8             3.4247     1.6582     1.0971 N.2     
   9 N9             2.2445    -0.0331     0.4369 N.pl3   
  10 C10            3.4288    -0.4659     0.9483 C.2     
  11 C11            3.8834    -1.8989     1.0535 C.3     
  12 C12            3.4373    -2.4781     2.3975 C.3     
  13 C13            3.7018    -3.9639     2.6492 C.3     
  14 C14            4.5295    -2.9049     3.3803 C.3     
  15 F15            0.3884     3.9822     1.2979 F       
  16 F16            2.4846     4.0392     0.3912 F       
  17 F17            0.6498     4.1487    -0.9655 F       
  18 C18           -1.0934     2.2300    -0.9342 C.3     
  19 N19           -0.9483     2.4849    -2.3736 N.3     
  20 C20           -2.1865     3.0374    -2.9377 C.3     
  21 C21           -1.9540     3.4251    -4.3997 C.3     
  22 C22           -1.5200     2.1864    -5.1883 C.3     
  23 C23           -0.2560     1.6024    -4.5513 C.3     
  24 C24           -0.5377     1.2676    -3.0848 C.3     
  25 C25           -3.2308     3.9719    -4.9844 C.ar    
  26 C26           -3.2671     5.2617    -5.4803 C.ar    
  27 C27           -4.4383     5.7633    -6.0165 C.ar    
  28 C28           -5.5730     4.9749    -6.0573 C.ar    
  29 C29           -5.5365     3.6848    -5.5623 C.ar    
  30 C30           -4.3641     3.1817    -5.0300 C.ar    
  31 H31           -0.7480    -0.4714    -0.9645 H       
  32 H32            1.1595    -1.7437    -0.1831 H       
  33 H33            3.4432    -2.4801     0.2432 H       
  34 H34            4.9703    -1.9414     0.9823 H       
  35 H35            2.5242    -2.0519     2.8132 H       
  36 H36            2.9629    -4.5151     3.2308 H       
  37 H37            4.1936    -4.5287     1.8572 H       
  38 H38            5.5658    -2.7731     3.0693 H       
  39 H39            4.3351    -2.7595     4.4429 H       
  40 H40           -2.0056     1.6605    -0.7562 H       
  41 H41           -1.1477     3.1791    -0.4008 H       
  42 H42           -2.9767     2.2887    -2.8817 H       
  43 H43           -2.4818     3.9200    -2.3704 H       
  44 H44           -1.1734     4.1838    -4.4553 H       
  45 H45           -2.3164     1.4425    -5.1655 H       
  46 H46           -1.3114     2.4665    -6.2209 H       
  47 H47            0.0337     0.6958    -5.0825 H       
  48 H48            0.5514     2.3325    -4.6093 H       
  49 H49            0.3645     0.8648    -2.6245 H       
  50 H50           -1.3357     0.5272    -3.0282 H       
  51 H51           -2.3805     5.8777    -5.4484 H       
  52 H52           -4.4669     6.7713    -6.4033 H       
  53 H53           -6.4883     5.3671    -6.4757 H       
  54 H54           -6.4231     3.0689    -5.5939 H       
  55 H55           -4.3345     2.1725    -4.6466 H       
@<TRIPOS>BOND
   1    1    2 1
   2    1    5 2
   3    1   18 1
   4    2    3 2
   5    2   31 1
   6    3    9 1
   7    3   32 1
   8    4    5 1
   9    4    9 1
  10    4    8 2
  11    5    6 1
  12    6   15 1
  13    6   16 1
  14    6   17 1
  15    7    8 1
  16    7   10 2
  17    9   10 1
  18   10   11 1
  19   11   12 1
  20   11   33 1
  21   11   34 1
  22   12   13 1
  23   12   14 1
  24   12   35 1
  25   13   14 1
  26   13   36 1
  27   13   37 1
  28   14   38 1
  29   14   39 1
  30   18   19 1
  31   18   40 1
  32   18   41 1
  33   19   20 1
  34   19   24 1
  35   20   21 1
  36   20   42 1
  37   20   43 1
  38   21   22 1
  39   21   25 1
  40   21   44 1
  41   22   23 1
  42   22   45 1
  43   22   46 1
  44   23   24 1
  45   23   47 1
  46   23   48 1
  47   24   49 1
  48   24   50 1
  49   25   26 ar
  50   25   30 ar
  51   26   27 ar
  52   26   51 1
  53   27   28 ar
  54   27   52 1
  55   28   29 ar
  56   28   53 1
  57   29   30 ar
  58   29   54 1
  59   30   55 1

#	End of record

