#	Name: ASD07931991
#	Creating user name:	WinNT
#	Creation time:	15. 06. 2019 21:14

#	Modifying user name:	WinNT
#	Modification time:	15. 06. 2019 21:14

#	Program:	/corina/corina34_cracker 3.40 0067  02.08.2006

@<TRIPOS>MOLECULE
ASD07931991
  31   32    0    0    0
SMALL
NO_CHARGES


@<TRIPOS>ATOM
   1 N1            -0.0178     1.4624     0.0101 N.pl3   
   2 C2             0.0021    -0.0041     0.0020 C.3     
   3 C3             0.7733    -0.5065     1.2304 C.3     
   4 S4             2.4363     0.2339     1.2028 S.o2    
   5 N5             2.1138     1.8519     0.9691 N.am    
   6 C6             1.1691     2.1662     0.0025 C.2     
   7 C7             2.7940     2.8912     1.7459 C.3     
   8 N8             1.3955     3.0951    -0.8833 N.2     
   9 C9            -1.4107    -0.5268     0.0464 C.2     
  10 C10            0.6911    -0.4987    -1.2714 C.3     
  11 C11           -2.4972     0.2353     0.0811 C.2     
  12 O12            3.0376     0.1712     2.4887 O.2     
  13 O13            3.1450    -0.1615     0.0363 O.2     
  14 C14           -1.7744    -1.9454     0.0508 C.2     
  15 C15           -3.0946    -2.0901     0.0936 C.2     
  16 C16           -3.6864    -0.6984     0.1176 C.3     
  17 Br17          -4.0498    -3.7219     0.1166 Br      
  18 H18           -0.8639     1.9368     0.0167 H       
  19 H19            0.2524    -0.2060     2.1395 H       
  20 H20            0.8541    -1.5929     1.1945 H       
  21 H21            3.7043     3.1942     1.2285 H       
  22 H22            2.1349     3.7523     1.8561 H       
  23 H23            3.0490     2.5003     2.7309 H       
  24 H24            2.2357     3.5798    -0.8740 H       
  25 H25            1.7134    -0.1216    -1.3012 H       
  26 H26            0.7056    -1.5886    -1.2767 H       
  27 H27            0.1453    -0.1383    -2.1433 H       
  28 H28           -2.5262     1.3149     0.0834 H       
  29 H29           -1.0673    -2.7613     0.0227 H       
  30 H30           -4.2594    -0.5464     1.0323 H       
  31 H31           -4.3181    -0.5406    -0.7565 H       
@<TRIPOS>BOND
   1    1    2 1
   2    1    6 1
   3    1   18 1
   4    2    3 1
   5    2    9 1
   6    2   10 1
   7    3    4 1
   8    3   19 1
   9    3   20 1
  10    4    5 am
  11    4   12 2
  12    4   13 2
  13    5    6 1
  14    5    7 1
  15    6    8 2
  16    7   21 1
  17    7   22 1
  18    7   23 1
  19    8   24 1
  20    9   14 1
  21    9   11 2
  22   10   25 1
  23   10   26 1
  24   10   27 1
  25   11   16 1
  26   11   28 1
  27   14   15 2
  28   14   29 1
  29   15   16 1
  30   15   17 1
  31   16   30 1
  32   16   31 1

#	End of record

