#	Name: ASD01903070
#	Creating user name:	WinNT
#	Creation time:	15. 06. 2019 19:54

#	Modifying user name:	WinNT
#	Modification time:	15. 06. 2019 19:54

#	Program:	/corina/corina34_cracker 3.40 0067  02.08.2006

@<TRIPOS>MOLECULE
ASD01903070
  40   42    0    0    0
SMALL
NO_CHARGES


@<TRIPOS>ATOM
   1 C1            -0.0160     1.2943     0.0210 C.2     
   2 N2             0.0004    -0.0032     0.0040 N.2     
   3 C3            -1.1730    -0.6195     0.0265 C.2     
   4 C4            -2.2472     0.1862     0.0645 C.2     
   5 S5            -1.6841     1.8560     0.0782 S.3     
   6 C6            -1.2920    -2.0997     0.0103 C.2     
   7 N7             1.1051     2.1109     0.0028 N.pl3   
   8 C8            -2.2725    -2.8644     0.6789 C.2     
   9 N9            -2.0518    -4.1258     0.4278 N.2     
  10 N10           -0.9306    -4.2259    -0.4051 N.am    
  11 C11           -0.4788    -2.9640    -0.6567 C.2     
  12 C12            0.9588     3.4913    -0.0934 C.ar    
  13 N13           -0.2449     4.0126    -0.2729 N.ar    
  14 C14           -0.4273     5.3159    -0.3689 C.ar    
  15 C15            0.6394     6.1881    -0.2847 C.ar    
  16 C16            1.9189     5.6818    -0.0965 C.ar    
  17 C17            2.0781     4.3117     0.0057 C.ar    
  18 C18           -3.6860    -0.2609     0.0952 C.3     
  19 C19           -0.3955    -5.3683    -0.8794 C.2     
  20 C20           -1.0118    -6.6955    -0.5192 C.3     
  21 C21           -2.0741    -7.0630    -1.5572 C.3     
  22 C22            0.0742    -7.7730    -0.4974 C.3     
  23 O23            0.5784    -5.3284    -1.5934 O.2     
  24 H24            1.9910     1.7197     0.0572 H       
  25 H25           -3.0694    -2.4723     1.2934 H       
  26 H26            0.3718    -2.6994    -1.2673 H       
  27 H27           -1.4239     5.7054    -0.5155 H       
  28 H28            0.4807     7.2534    -0.3646 H       
  29 H29            2.7698     6.3433    -0.0274 H       
  30 H30            3.0589     3.8841     0.1527 H       
  31 H31           -4.0067    -0.3823     1.1299 H       
  32 H32           -4.3097     0.4879    -0.3931 H       
  33 H33           -3.7822    -1.2118    -0.4289 H       
  34 H34           -1.4745    -6.6260     0.4653 H       
  35 H35           -2.5199    -8.0229    -1.2966 H       
  36 H36           -2.8478    -6.2953    -1.5727 H       
  37 H37           -1.6114    -7.1325    -2.5417 H       
  38 H38            0.8310    -7.5112     0.2421 H       
  39 H39           -0.3716    -8.7329    -0.2369 H       
  40 H40            0.5368    -7.8425    -1.4819 H       
@<TRIPOS>BOND
   1    1    2 2
   2    1    7 1
   3    1    5 1
   4    2    3 1
   5    3    4 2
   6    3    6 1
   7    4    5 1
   8    4   18 1
   9    6    8 1
  10    6   11 2
  11    7   12 1
  12    7   24 1
  13    8    9 2
  14    8   25 1
  15    9   10 1
  16   10   11 1
  17   10   19 am
  18   11   26 1
  19   12   13 ar
  20   12   17 ar
  21   13   14 ar
  22   14   15 ar
  23   14   27 1
  24   15   16 ar
  25   15   28 1
  26   16   17 ar
  27   16   29 1
  28   17   30 1
  29   18   31 1
  30   18   32 1
  31   18   33 1
  32   19   20 1
  33   19   23 2
  34   20   21 1
  35   20   22 1
  36   20   34 1
  37   21   35 1
  38   21   36 1
  39   21   37 1
  40   22   38 1
  41   22   39 1
  42   22   40 1

#	End of record

