#	Name: ASD02030743
#	Creating user name:	WinNT
#	Creation time:	15. 06. 2019 20:16

#	Modifying user name:	WinNT
#	Modification time:	15. 06. 2019 20:16

#	Program:	/corina/corina34_cracker 3.40 0067  02.08.2006

@<TRIPOS>MOLECULE
ASD02030743
  27   28    0    0    0
SMALL
NO_CHARGES


@<TRIPOS>ATOM
   1 N1            -0.0169     1.3957     0.0097 N.2     
   2 N2             0.0021    -0.0041     0.0020 N.am    
   3 C3             1.1646    -0.6797    -0.0123 C.2     
   4 N4             2.3448    -0.0325    -0.0200 N.am    
   5 C5             2.3757     1.3164    -0.0131 C.2     
   6 C6             1.1074     2.0610     0.0026 C.2     
   7 O7             1.1494    -1.8958    -0.0178 O.2     
   8 O8             3.4386     1.9089    -0.0192 O.2     
   9 C9            -1.2627    -0.7434     0.0101 C.3     
  10 C10           -1.6828    -1.0045     1.4336 C.2     
  11 C11           -2.9293    -1.7361     1.7105 C.ar    
  12 C12           -3.3226    -1.9804     3.0302 C.ar    
  13 C13           -4.4921    -2.6662     3.2814 C.ar    
  14 C14           -5.2761    -3.1124     2.2318 C.ar    
  15 C15           -4.8935    -2.8750     0.9230 C.ar    
  16 C16           -3.7297    -2.1856     0.6554 C.ar    
  17 O17           -0.9937    -0.6118     2.3508 O.2     
  18 O18            1.1051     3.4197     0.0094 O.3     
  19 H19            3.1737    -0.5362    -0.0303 H       
  20 H20           -2.0303    -0.1556    -0.4933 H       
  21 H21           -1.1322    -1.6923    -0.5101 H       
  22 H22           -2.7117    -1.6332     3.8503 H       
  23 H23           -4.7970    -2.8560     4.3000 H       
  24 H24           -6.1911    -3.6490     2.4350 H       
  25 H25           -5.5103    -3.2269     0.1093 H       
  26 H26           -3.4349    -1.9969    -0.3663 H       
  27 H27            0.2211     3.8114     0.0197 H       
@<TRIPOS>BOND
   1    1    2 1
   2    1    6 2
   3    2    3 am
   4    2    9 1
   5    3    4 am
   6    3    7 2
   7    4    5 am
   8    4   19 1
   9    5    6 1
  10    5    8 2
  11    6   18 1
  12    9   10 1
  13    9   20 1
  14    9   21 1
  15   10   11 1
  16   10   17 2
  17   11   12 ar
  18   11   16 ar
  19   12   13 ar
  20   12   22 1
  21   13   14 ar
  22   13   23 1
  23   14   15 ar
  24   14   24 1
  25   15   16 ar
  26   15   25 1
  27   16   26 1
  28   18   27 1

#	End of record

