#	Name: ASD01180074
#	Creating user name:	WinNT
#	Creation time:	15. 06. 2019 19:06

#	Modifying user name:	WinNT
#	Modification time:	15. 06. 2019 19:06

#	Program:	/corina/corina34_cracker 3.40 0067  02.08.2006

@<TRIPOS>MOLECULE
ASD01180074
  60   62    0    0    0
SMALL
NO_CHARGES


@<TRIPOS>ATOM
   1 C1             1.0776     1.6777     1.3326 C.2     
   2 C2             0.9166     0.1891     1.1622 C.3     
   3 C3             2.2911    -0.4533     0.9648 C.3     
   4 O4             2.1788     2.1740     1.2996 O.2     
   5 O5            -0.0027     2.4531     1.5156 O.3     
   6 C6             3.2189    -2.6782     0.6098 C.2     
   7 C7             3.0609    -4.1387     0.4426 C.ar    
   8 C8             4.1817    -4.9470     0.2464 C.ar    
   9 C9             4.0274    -6.3092     0.0916 C.ar    
  10 C10            2.7650    -6.8742     0.1299 C.ar    
  11 C11            1.6498    -6.0786     0.3241 C.ar    
  12 C12            1.7908    -4.7158     0.4860 C.ar    
  13 O13            4.3266    -2.1790     0.5766 O.2     
  14 N14            2.1346    -1.9004     0.7991 N.am    
  15 C15            2.6039    -8.3628    -0.0410 C.3     
  16 C16            2.4220    -9.0169     1.3302 C.3     
  17 C17            2.3731   -10.5374     1.1675 C.3     
  18 C18            3.7282   -11.0405     0.6660 C.3     
  19 N19            1.4281    -8.6346    -0.8715 N.pl3   
  20 N20            2.8770    -8.2188    -4.1737 N.ar    
  21 C21            2.7577    -8.3045    -2.8723 C.ar    
  22 C22            1.5208    -8.5491    -2.2627 C.ar    
  23 C23            0.3929    -8.7057    -3.0451 C.ar    
  24 C24            0.5386    -8.6112    -4.4410 C.ar    
  25 C25           -0.5621    -8.7593    -5.3007 C.ar    
  26 C26           -0.3826    -8.6614    -6.6469 C.ar    
  27 C27            0.8795    -8.4159    -7.1833 C.ar    
  28 C28            1.9678    -8.2672    -6.3796 C.ar    
  29 C29            1.8237    -8.3615    -4.9844 C.ar    
  30 C30           -0.9533    -8.9704    -2.4216 C.3     
  31 C31            2.0563   -11.1848     2.5171 C.3     
  32 H32            0.4442    -0.2294     2.0509 H       
  33 H33            0.2933    -0.0115     0.2908 H       
  34 H34            2.7635    -0.0348     0.0760 H       
  35 H35            2.9145    -0.2527     1.8361 H       
  36 H36            0.1506     3.4021     1.6201 H       
  37 H37            5.1675    -4.5071     0.2156 H       
  38 H38            4.8938    -6.9358    -0.0603 H       
  39 H39            0.6672    -6.5259     0.3530 H       
  40 H40            0.9199    -4.0964     0.6419 H       
  41 H41            1.2506    -2.2988     0.8256 H       
  42 H42            3.4919    -8.7713    -0.5234 H       
  43 H43            3.2583    -8.7472     1.9752 H       
  44 H44            1.4910    -8.6692     1.7779 H       
  45 H45            1.5985   -10.8010     0.4473 H       
  46 H46            4.4919   -10.8365     1.4165 H       
  47 H47            3.6732   -12.1142     0.4861 H       
  48 H48            3.9848   -10.5294    -0.2618 H       
  49 H49            0.5852    -8.8740    -0.4554 H       
  50 H50            3.6348    -8.1832    -2.2539 H       
  51 H51           -1.5452    -8.9502    -4.8963 H       
  52 H52           -1.2295    -8.7757    -7.3073 H       
  53 H53            0.9963    -8.3428    -8.2545 H       
  54 H54            2.9389    -8.0770    -6.8123 H       
  55 H55           -1.4533    -8.0229    -2.2207 H       
  56 H56           -1.5602    -9.5637    -3.1055 H       
  57 H57           -0.8201    -9.5161    -1.4874 H       
  58 H58            1.0909   -10.8264     2.8743 H       
  59 H59            2.0214   -12.2681     2.4012 H       
  60 H60            2.8309   -10.9212     3.2372 H       
@<TRIPOS>BOND
   1    1    2 1
   2    1    4 2
   3    1    5 1
   4    2    3 1
   5    2   32 1
   6    2   33 1
   7    3   14 1
   8    3   34 1
   9    3   35 1
  10    5   36 1
  11    6    7 1
  12    6   13 2
  13    6   14 am
  14    7    8 ar
  15    7   12 ar
  16    8    9 ar
  17    8   37 1
  18    9   10 ar
  19    9   38 1
  20   10   11 ar
  21   10   15 1
  22   11   12 ar
  23   11   39 1
  24   12   40 1
  25   14   41 1
  26   15   16 1
  27   15   19 1
  28   15   42 1
  29   16   17 1
  30   16   43 1
  31   16   44 1
  32   17   18 1
  33   17   31 1
  34   17   45 1
  35   18   46 1
  36   18   47 1
  37   18   48 1
  38   19   22 1
  39   19   49 1
  40   20   21 ar
  41   20   29 ar
  42   21   22 ar
  43   21   50 1
  44   22   23 ar
  45   23   24 ar
  46   23   30 1
  47   24   25 ar
  48   24   29 ar
  49   25   26 ar
  50   25   51 1
  51   26   27 ar
  52   26   52 1
  53   27   28 ar
  54   27   53 1
  55   28   29 ar
  56   28   54 1
  57   30   55 1
  58   30   56 1
  59   30   57 1
  60   31   58 1
  61   31   59 1
  62   31   60 1

#	End of record

