#	Name: ASD01917677
#	Creating user name:	WinNT
#	Creation time:	15. 06. 2019 20:09

#	Modifying user name:	WinNT
#	Modification time:	15. 06. 2019 20:09

#	Program:	/corina/corina34_cracker 3.40 0067  02.08.2006

@<TRIPOS>MOLECULE
ASD01917677
  39   42    0    0    0
SMALL
NO_CHARGES


@<TRIPOS>ATOM
   1 C1            -0.0140     1.4936     0.0246 C.3     
   2 C2             0.0205    -0.0167     0.0082 C.2     
   3 C3             2.4651    -0.1848    -0.4927 C.3     
   4 C4             2.3201     1.2814    -0.9140 C.3     
   5 N5             1.3859     1.9574    -0.0009 N.am    
   6 C6            -1.0012    -0.8652     0.2169 C.2     
   7 C7            -0.5001    -2.1780     0.0955 C.2     
   8 N8             0.7872    -2.0984    -0.1759 N.2     
   9 N9             1.1365    -0.7462    -0.2308 N.pl3   
  10 C10            1.7966     2.9694     0.7888 C.2     
  11 O11            2.9746     3.2660     0.8332 O.2     
  12 C12            0.8145     3.7187     1.6010 C.ar    
  13 C13            1.1703     4.2022     2.8611 C.ar    
  14 C14           -0.4708     3.9508     1.1086 C.ar    
  15 C15           -1.3825     4.6507     1.8716 C.ar    
  16 C16           -1.0250     5.1226     3.1222 C.ar    
  17 C17            0.2491     4.9006     3.6139 C.ar    
  18 C18           -1.2840    -3.4286     0.2468 C.ar    
  19 C19           -0.6759    -4.6789     0.1035 C.ar    
  20 C20           -1.4418    -5.8167     0.2522 C.ar    
  21 N21           -2.7299    -5.7349     0.5257 N.ar    
  22 C22           -3.3421    -4.5750     0.6687 C.ar    
  23 C23           -2.6496    -3.3885     0.5421 C.ar    
  24 H24           -0.5441     1.8630    -0.8532 H       
  25 H25           -0.5055     1.8445     0.9320 H       
  26 H26            2.9468    -0.7474    -1.2924 H       
  27 H27            3.0705    -0.2455     0.4117 H       
  28 H28            3.2927     1.7714    -0.8682 H       
  29 H29            1.9341     1.3312    -1.9322 H       
  30 H30           -2.0221    -0.5909     0.4381 H       
  31 H31            2.1645     4.0295     3.2460 H       
  32 H32           -0.7508     3.5835     0.1324 H       
  33 H33           -2.3773     4.8309     1.4919 H       
  34 H34           -1.7422     5.6706     3.7152 H       
  35 H35            0.5231     5.2752     4.5891 H       
  36 H36            0.3780    -4.7531    -0.1206 H       
  37 H37           -0.9809    -6.7872     0.1430 H       
  38 H38           -4.3985    -4.5540     0.8924 H       
  39 H39           -3.1561    -2.4425     0.6650 H       
@<TRIPOS>BOND
   1    1    2 1
   2    1    5 1
   3    1   24 1
   4    1   25 1
   5    2    6 2
   6    2    9 1
   7    3    4 1
   8    3    9 1
   9    3   26 1
  10    3   27 1
  11    4    5 1
  12    4   28 1
  13    4   29 1
  14    5   10 am
  15    6    7 1
  16    6   30 1
  17    7    8 2
  18    7   18 1
  19    8    9 1
  20   10   11 2
  21   10   12 1
  22   12   14 ar
  23   12   13 ar
  24   13   17 ar
  25   13   31 1
  26   14   15 ar
  27   14   32 1
  28   15   16 ar
  29   15   33 1
  30   16   17 ar
  31   16   34 1
  32   17   35 1
  33   18   19 ar
  34   18   23 ar
  35   19   20 ar
  36   19   36 1
  37   20   21 ar
  38   20   37 1
  39   21   22 ar
  40   22   23 ar
  41   22   38 1
  42   23   39 1

#	End of record

