#	Name: ASD02820005
#	Creating user name:	WinNT
#	Creation time:	15. 06. 2019 20:26

#	Modifying user name:	WinNT
#	Modification time:	15. 06. 2019 20:26

#	Program:	/corina/corina34_cracker 3.40 0067  02.08.2006

@<TRIPOS>MOLECULE
ASD02820005
  49   51    0    0    0
SMALL
NO_CHARGES


@<TRIPOS>ATOM
   1 N1             1.2343     1.1980    -2.1760 N.ar    
   2 C2             1.1481    -0.1178    -2.0261 C.ar    
   3 N3             1.8302    -0.7644    -1.0973 N.ar    
   4 C4             2.6452    -0.1137    -0.2597 C.ar    
   5 C5             2.7713     1.2775    -0.3768 C.ar    
   6 C6             2.0161     1.9260    -1.3922 C.ar    
   7 S7             3.6578    -0.7053     1.0489 S.3     
   8 C8             4.2395     0.9043     1.4278 C.2     
   9 C9             3.6879     1.8296     0.5996 C.2     
  10 N10            3.9771     3.1844     0.6820 N.pl3   
  11 C11            5.1618     1.2008     2.4592 C.2     
  12 N12            5.6541     0.2096     3.2284 N.am    
  13 O13            5.5109     2.3518     2.6519 O.2     
  14 C14            6.6090     0.5165     4.2962 C.3     
  15 C15            5.9629     1.4756     5.2980 C.3     
  16 C16            7.0070    -0.7761     5.0116 C.3     
  17 C17            7.8544     1.1705     3.6943 C.3     
  18 C18            2.1026     3.3936    -1.5714 C.ar    
  19 C19            3.3472     4.0182    -1.6345 C.ar    
  20 C20            0.9388     4.1548    -1.6835 C.ar    
  21 C21            1.0226     5.5219    -1.8509 C.ar    
  22 C22            2.2576     6.1412    -1.9081 C.ar    
  23 C23            3.4208     5.3910    -1.8027 C.ar    
  24 S24            0.0904    -1.0314    -3.0991 S.3     
  25 C25            0.3617    -2.7028    -2.4596 C.3     
  26 O26            4.6322     6.0045    -1.8594 O.3     
  27 C27            4.6335     7.4234    -2.0287 C.3     
  28 H28            4.8575     3.4760     0.9662 H       
  29 H29            3.2989     3.8398     0.4553 H       
  30 H30            5.3762    -0.7070     3.0750 H       
  31 H31            5.0757     1.0097     5.7268 H       
  32 H32            6.6734     1.7040     6.0925 H       
  33 H33            5.6794     2.3965     4.7884 H       
  34 H34            7.4673    -1.4594     4.2979 H       
  35 H35            7.7175    -0.5477     5.8060 H       
  36 H36            6.1198    -1.2420     5.4404 H       
  37 H37            7.5708     2.0914     3.1847 H       
  38 H38            8.5648     1.3989     4.4888 H       
  39 H39            8.3146     0.4872     2.9806 H       
  40 H40            4.2514     3.4334    -1.5520 H       
  41 H41           -0.0274     3.6742    -1.6397 H       
  42 H42            0.1209     6.1100    -1.9379 H       
  43 H43            2.3174     7.2115    -2.0396 H       
  44 H44            1.4167    -2.9606    -2.5527 H       
  45 H45            0.0693    -2.7423    -1.4103 H       
  46 H46           -0.2373    -3.4120    -3.0307 H       
  47 H47            5.6615     7.7849    -2.0579 H       
  48 H48            4.1321     7.6784    -2.9624 H       
  49 H49            4.1081     7.8893    -1.1951 H       
@<TRIPOS>BOND
   1    1    2 ar
   2    1    6 ar
   3    2    3 ar
   4    2   24 1
   5    3    4 ar
   6    4    5 ar
   7    4    7 1
   8    5    6 ar
   9    5    9 1
  10    6   18 1
  11    7    8 1
  12    8    9 2
  13    8   11 1
  14    9   10 1
  15   10   28 1
  16   10   29 1
  17   11   12 am
  18   11   13 2
  19   12   14 1
  20   12   30 1
  21   14   15 1
  22   14   16 1
  23   14   17 1
  24   15   31 1
  25   15   32 1
  26   15   33 1
  27   16   34 1
  28   16   35 1
  29   16   36 1
  30   17   37 1
  31   17   38 1
  32   17   39 1
  33   18   19 ar
  34   18   20 ar
  35   19   23 ar
  36   19   40 1
  37   20   21 ar
  38   20   41 1
  39   21   22 ar
  40   21   42 1
  41   22   23 ar
  42   22   43 1
  43   23   26 1
  44   24   25 1
  45   25   44 1
  46   25   45 1
  47   25   46 1
  48   26   27 1
  49   27   47 1
  50   27   48 1
  51   27   49 1

#	End of record

