#	Name: ASD01940041
#	Creating user name:	WinNT
#	Creation time:	15. 06. 2019 20:11

#	Modifying user name:	WinNT
#	Modification time:	15. 06. 2019 20:11

#	Program:	/corina/corina34_cracker 3.40 0067  02.08.2006

@<TRIPOS>MOLECULE
ASD01940041
  50   53    0    0    0
SMALL
NO_CHARGES


@<TRIPOS>ATOM
   1 C1             0.0238     1.4164     0.4912 C.ar    
   2 C2            -0.0927     0.1575    -0.0839 C.ar    
   3 C3            -1.2457    -0.5800     0.0976 C.ar    
   4 C4            -2.2881    -0.0637     0.8539 C.ar    
   5 C5            -2.1728     1.1939     1.4284 C.ar    
   6 C6            -1.0179     1.9302     1.2530 C.ar    
   7 N7             1.1923     2.1644     0.3082 N.pl3   
   8 C8             1.1229     3.5423     0.2076 C.2     
   9 C9             2.1828     4.4369     0.1659 C.2     
  10 C10            1.7846     5.7706     0.0607 C.2     
  11 N11            0.5073     5.9994     0.0164 N.2     
  12 S12           -0.2953     4.5095     0.1002 S.3     
  13 O13            2.6905     6.7813     0.0077 O.3     
  14 C14            3.5928     4.0193     0.2273 C.2     
  15 N15            4.2797     3.7370    -0.9351 N.pl3   
  16 N16            4.1940     3.9159     1.3832 N.2     
  17 N17            5.5539     3.2485    -0.8739 N.3     
  18 O18           -3.4234    -0.7904     1.0318 O.3     
  19 C19           -3.3603    -1.8867     1.8326 C.ar    
  20 C20           -2.1937    -2.1750     2.5247 C.ar    
  21 C21           -2.1321    -3.2912     3.3389 C.ar    
  22 C22           -3.2329    -4.1201     3.4627 C.ar    
  23 C23           -4.4659    -2.7170     1.9635 C.ar    
  24 C24           -4.3971    -3.8350     2.7732 C.ar    
  25 Cl25          -0.6721    -3.6529     4.2057 Cl      
  26 Cl26          -5.9306    -2.3552     1.1047 Cl      
  27 C27            6.4809     4.0977    -1.6361 C.3     
  28 C28            7.9029     3.5492    -1.4919 C.3     
  29 O29            7.9303     2.1883    -1.9307 O.3     
  30 C30            7.0397     1.3328    -1.2093 C.3     
  31 C31            5.6089     1.8589    -1.3507 C.3     
  32 H32            0.7183    -0.2442    -0.6732 H       
  33 H33           -1.3364    -1.5589    -0.3495 H       
  34 H34           -2.9847     1.5953     2.0167 H       
  35 H35           -0.9281     2.9090     1.7005 H       
  36 H36            2.0509     1.7166     0.2518 H       
  37 H37            2.9723     7.0103    -0.8885 H       
  38 H38            3.8580     3.8854    -1.7959 H       
  39 H39            5.1418     3.7130     1.4204 H       
  40 H40           -1.3339    -1.5286     2.4278 H       
  41 H41           -3.1827    -4.9915     4.0988 H       
  42 H42           -5.2548    -4.4839     2.8710 H       
  43 H43            6.1950     4.0959    -2.6879 H       
  44 H44            6.4428     5.1162    -1.2496 H       
  45 H45            8.5852     4.1418    -2.1012 H       
  46 H46            8.2088     3.6009    -0.4469 H       
  47 H47            7.0976     0.3225    -1.6143 H       
  48 H48            7.3204     1.3200    -0.1562 H       
  49 H49            4.9342     1.2431    -0.7559 H       
  50 H50            5.3091     1.8213    -2.3979 H       
@<TRIPOS>BOND
   1    1    2 ar
   2    1    7 1
   3    1    6 ar
   4    2    3 ar
   5    2   32 1
   6    3    4 ar
   7    3   33 1
   8    4    5 ar
   9    4   18 1
  10    5    6 ar
  11    5   34 1
  12    6   35 1
  13    7    8 1
  14    7   36 1
  15    8    9 2
  16    8   12 1
  17    9   10 1
  18    9   14 1
  19   10   11 2
  20   10   13 1
  21   11   12 1
  22   13   37 1
  23   14   15 1
  24   14   16 2
  25   15   17 1
  26   15   38 1
  27   16   39 1
  28   17   27 1
  29   17   31 1
  30   18   19 1
  31   19   20 ar
  32   19   23 ar
  33   20   21 ar
  34   20   40 1
  35   21   22 ar
  36   21   25 1
  37   22   24 ar
  38   22   41 1
  39   23   26 1
  40   23   24 ar
  41   24   42 1
  42   27   28 1
  43   27   43 1
  44   27   44 1
  45   28   29 1
  46   28   45 1
  47   28   46 1
  48   29   30 1
  49   30   31 1
  50   30   47 1
  51   30   48 1
  52   31   49 1
  53   31   50 1

#	End of record

