#	Name: ASD08070512
#	Creating user name:	WinNT
#	Creation time:	15. 06. 2019 21:15

#	Modifying user name:	WinNT
#	Modification time:	15. 06. 2019 21:15

#	Program:	/corina/corina34_cracker 3.40 0067  02.08.2006

@<TRIPOS>MOLECULE
ASD08070512
  43   44    0    0    0
SMALL
NO_CHARGES


@<TRIPOS>ATOM
   1 C1             0.1407     1.4677     0.4944 C.ar    
   2 C2             0.2101     0.0846     0.5187 C.ar    
   3 C3             1.2845    -0.5663    -0.0840 C.ar    
   4 C4             2.2789     0.1740    -0.7051 C.ar    
   5 C5             2.2024     1.5542    -0.7250 C.ar    
   6 C6             1.1363     2.1994    -0.1269 C.ar    
   7 N7             1.3601    -1.9658    -0.0621 N.am    
   8 C8             2.5576    -2.5774    -0.1537 C.2     
   9 O9             3.5652    -1.9187    -0.3251 O.2     
  10 N10            2.6382    -3.9192    -0.0553 N.am    
  11 C11            3.9399    -4.5840    -0.1549 C.3     
  12 C12            3.7527    -6.0957    -0.0114 C.3     
  13 O13           -0.7678    -0.6362     1.1296 O.3     
  14 C14           -1.7841     0.0989     1.8143 C.3     
  15 C15           -3.0554    -0.7479     1.9008 C.3     
  16 C16           -1.3025     0.4416     3.2255 C.3     
  17 C17            5.0917    -6.7796    -0.1138 C.ar    
  18 N18            5.8533    -6.5666    -1.1689 N.ar    
  19 C19            7.0320    -7.1432    -1.3012 C.ar    
  20 C20            7.5133    -7.9990    -0.3290 C.ar    
  21 C21            6.7405    -8.2476     0.7953 C.ar    
  22 C22            5.5097    -7.6186     0.9021 C.ar    
  23 H23           -0.6933     1.9746     0.9568 H       
  24 H24            3.1133    -0.3275    -1.1729 H       
  25 H25            2.9777     2.1298    -1.2088 H       
  26 H26            1.0805     3.2778    -0.1449 H       
  27 H27            0.5506    -2.4940     0.0190 H       
  28 H28            1.8345    -4.4446     0.0814 H       
  29 H29            4.3872    -4.3637    -1.1242 H       
  30 H30            4.5944    -4.2220     0.6380 H       
  31 H31            3.3054    -6.3160     0.9579 H       
  32 H32            3.0983    -6.4577    -0.8043 H       
  33 H33           -1.9966     1.0188     1.2695 H       
  34 H34           -2.8429    -1.6678     2.4456 H       
  35 H35           -3.8306    -0.1871     2.4231 H       
  36 H36           -3.3985    -0.9920     0.8955 H       
  37 H37           -0.3968     1.0449     3.1639 H       
  38 H38           -2.0777     1.0024     3.7478 H       
  39 H39           -1.0900    -0.4783     3.7703 H       
  40 H40            7.6278    -6.9444    -2.1798 H       
  41 H41            8.4791    -8.4687    -0.4435 H       
  42 H42            7.0909    -8.9122     1.5711 H       
  43 H43            4.8817    -7.7887     1.7641 H       
@<TRIPOS>BOND
   1    1    2 ar
   2    1    6 ar
   3    1   23 1
   4    2    3 ar
   5    2   13 1
   6    3    4 ar
   7    3    7 1
   8    4    5 ar
   9    4   24 1
  10    5    6 ar
  11    5   25 1
  12    6   26 1
  13    7    8 am
  14    7   27 1
  15    8    9 2
  16    8   10 am
  17   10   11 1
  18   10   28 1
  19   11   12 1
  20   11   29 1
  21   11   30 1
  22   12   17 1
  23   12   31 1
  24   12   32 1
  25   13   14 1
  26   14   15 1
  27   14   16 1
  28   14   33 1
  29   15   34 1
  30   15   35 1
  31   15   36 1
  32   16   37 1
  33   16   38 1
  34   16   39 1
  35   17   18 ar
  36   17   22 ar
  37   18   19 ar
  38   19   20 ar
  39   19   40 1
  40   20   21 ar
  41   20   41 1
  42   21   22 ar
  43   21   42 1
  44   22   43 1

#	End of record

