#	Name: ASD01151087
#	Creating user name:	WinNT
#	Creation time:	15. 06. 2019 19:05

#	Modifying user name:	WinNT
#	Modification time:	15. 06. 2019 19:05

#	Program:	/corina/corina34_cracker 3.40 0067  02.08.2006

@<TRIPOS>MOLECULE
ASD01151087
  43   43    0    0    0
SMALL
NO_CHARGES


@<TRIPOS>ATOM
   1 C1            -0.0187     1.5258     0.0104 C.3     
   2 C2             0.0021    -0.0041     0.0020 C.3     
   3 C3             0.7421    -0.5109     1.2415 C.3     
   4 C4            -1.4333    -0.5336     0.0129 C.3     
   5 C5             0.7074    -0.4901    -1.2379 C.ar    
   6 C6             1.2141     0.4172    -2.1400 C.ar    
   7 C7             1.8700    -0.0361    -3.2919 C.ar    
   8 C8             2.4128     0.9270    -4.2575 C.2     
   9 C9             3.0470     0.4857    -5.3713 C.2     
  10 C10            3.5678     1.4094    -6.2975 C.2     
  11 O11            4.1361     1.0140    -7.2955 O.2     
  12 C12            2.0062    -1.4118    -3.5187 C.ar    
  13 C13            1.4958    -2.3101    -2.6099 C.ar    
  14 C14            0.8502    -1.8546    -1.4654 C.ar    
  15 O15            0.3532    -2.7449    -0.5699 O.3     
  16 C16            1.6415    -3.7903    -2.8524 C.3     
  17 C17            2.3887    -4.0205    -4.1675 C.3     
  18 C18            2.4285    -4.4206    -1.7016 C.3     
  19 C19            0.2553    -4.4327    -2.9343 C.3     
  20 H20            1.0039     1.9031     0.0027 H       
  21 H21           -0.5459     1.8868    -0.8726 H       
  22 H22           -0.5289     1.8773     0.9072 H       
  23 H23            0.2319    -0.1594     2.1383 H       
  24 H24            0.7568    -1.6008     1.2356 H       
  25 H25            1.7647    -0.1336     1.2338 H       
  26 H26           -1.9605    -0.1726    -0.8702 H       
  27 H27           -1.4185    -1.6235     0.0069 H       
  28 H28           -1.9435    -0.1821     0.9097 H       
  29 H29            1.1059     1.4766    -1.9604 H       
  30 H30            2.3070     1.9871    -4.0805 H       
  31 H31            3.1529    -0.5744    -5.5482 H       
  32 H32            3.4619     2.4695    -6.1205 H       
  33 H33            2.5107    -1.7666    -4.4053 H       
  34 H34           -0.5598    -3.0109    -0.7450 H       
  35 H35            3.3763    -3.5629    -4.1092 H       
  36 H36            2.4942    -5.0911    -4.3430 H       
  37 H37            1.8281    -3.5715    -4.9874 H       
  38 H38            1.8962    -4.2566    -0.7647 H       
  39 H39            2.5340    -5.4912    -1.8770 H       
  40 H40            3.4161    -3.9630    -1.6433 H       
  41 H41           -0.3054    -3.9836    -3.7541 H       
  42 H42            0.3608    -5.5033    -3.1097 H       
  43 H43           -0.2770    -4.2687    -1.9973 H       
@<TRIPOS>BOND
   1    1    2 1
   2    1   20 1
   3    1   21 1
   4    1   22 1
   5    2    3 1
   6    2    4 1
   7    2    5 1
   8    3   23 1
   9    3   24 1
  10    3   25 1
  11    4   26 1
  12    4   27 1
  13    4   28 1
  14    5   14 ar
  15    5    6 ar
  16    6    7 ar
  17    6   29 1
  18    7    8 1
  19    7   12 ar
  20    8    9 2
  21    8   30 1
  22    9   10 1
  23    9   31 1
  24   10   11 2
  25   10   32 1
  26   12   13 ar
  27   12   33 1
  28   13   14 ar
  29   13   16 1
  30   14   15 1
  31   15   34 1
  32   16   17 1
  33   16   18 1
  34   16   19 1
  35   17   35 1
  36   17   36 1
  37   17   37 1
  38   18   38 1
  39   18   39 1
  40   18   40 1
  41   19   41 1
  42   19   42 1
  43   19   43 1

#	End of record

