#	Name: ASD02032012
#	Creating user name:	WinNT
#	Creation time:	15. 06. 2019 20:16

#	Modifying user name:	WinNT
#	Modification time:	15. 06. 2019 20:16

#	Program:	/corina/corina34_cracker 3.40 0067  02.08.2006

@<TRIPOS>MOLECULE
ASD02032012
  48   50    0    0    0
SMALL
NO_CHARGES


@<TRIPOS>ATOM
   1 C1            -0.0167     1.3813     0.0096 C.ar    
   2 C2             0.0021    -0.0041     0.0020 C.ar    
   3 C3            -1.1881    -0.7113     0.0101 C.ar    
   4 C4            -2.3932    -0.0351     0.0257 C.ar    
   5 C5            -2.4114     1.3474     0.0333 C.ar    
   6 C6            -1.2243     2.0554     0.0306 C.ar    
   7 Cl7            1.4743     2.2703     0.0002 Cl      
   8 F8             1.1807    -0.6642    -0.0137 F       
   9 S9            -3.9491     2.2074     0.0532 S.o2    
  10 O10           -3.6948     3.4969    -0.4869 O.2     
  11 O11           -4.9147     1.3154    -0.4865 O.2     
  12 N12           -4.3612     2.4381     1.6404 N.am    
  13 C13           -3.5337     3.2930     2.4952 C.3     
  14 C14           -4.2948     3.6361     3.7498 C.ar    
  15 C15           -4.1935     2.8193     4.8620 C.ar    
  16 C16           -4.8876     3.1277     6.0136 C.ar    
  17 C17           -5.6930     4.2669     6.0554 C.ar    
  18 C18           -5.7905     5.0868     4.9301 C.ar    
  19 C19           -5.0873     4.7696     3.7863 C.ar    
  20 C20           -6.4401     4.6033     7.2860 C.2     
  21 N21           -7.2170     5.7039     7.3231 N.am    
  22 O22           -6.3536     3.8871     8.2644 O.2     
  23 N23           -7.9250     6.0227     8.4893 N.am    
  24 C24           -8.7019     7.1234     8.5264 C.2     
  25 C25           -9.4489     7.4597     9.7571 C.ar    
  26 O26           -8.7883     7.8395     7.5481 O.2     
  27 C27          -10.2544     8.5989     9.7988 C.ar    
  28 C28          -10.9492     8.9068    10.9502 C.ar    
  29 C29          -10.8486     8.0895    12.0621 C.ar    
  30 C30          -10.0519     6.9589    12.0273 C.ar    
  31 C31           -9.3564     6.6364    10.8804 C.ar    
  32 H32           -1.1747    -1.7912     0.0038 H       
  33 H33           -3.3216    -0.5870     0.0316 H       
  34 H34           -1.2398     3.1353     0.0365 H       
  35 H35           -5.1505     2.0073     2.0042 H       
  36 H36           -2.6174     2.7648     2.7591 H       
  37 H37           -3.2837     4.2090     1.9599 H       
  38 H38           -3.5699     1.9382     4.8284 H       
  39 H39           -4.8082     2.4890     6.8809 H       
  40 H40           -6.4120     5.9697     4.9559 H       
  41 H41           -5.1619     5.4032     2.9148 H       
  42 H42           -7.2860     6.2754     6.5424 H       
  43 H43           -7.8559     5.4512     9.2701 H       
  44 H44          -10.3332     9.2380     8.9319 H       
  45 H45          -11.5728     9.7879    10.9838 H       
  46 H46          -11.3941     8.3354    12.9612 H       
  47 H47           -9.9777     6.3251    12.8986 H       
  48 H48           -8.7349     5.7535    10.8545 H       
@<TRIPOS>BOND
   1    1    2 ar
   2    1    7 1
   3    1    6 ar
   4    2    3 ar
   5    2    8 1
   6    3    4 ar
   7    3   32 1
   8    4    5 ar
   9    4   33 1
  10    5    6 ar
  11    5    9 1
  12    6   34 1
  13    9   10 2
  14    9   11 2
  15    9   12 am
  16   12   13 1
  17   12   35 1
  18   13   14 1
  19   13   36 1
  20   13   37 1
  21   14   15 ar
  22   14   19 ar
  23   15   16 ar
  24   15   38 1
  25   16   17 ar
  26   16   39 1
  27   17   18 ar
  28   17   20 1
  29   18   19 ar
  30   18   40 1
  31   19   41 1
  32   20   21 am
  33   20   22 2
  34   21   23 1
  35   21   42 1
  36   23   24 am
  37   23   43 1
  38   24   25 1
  39   24   26 2
  40   25   27 ar
  41   25   31 ar
  42   27   28 ar
  43   27   44 1
  44   28   29 ar
  45   28   45 1
  46   29   30 ar
  47   29   46 1
  48   30   31 ar
  49   30   47 1
  50   31   48 1

#	End of record

