#	Name: ASD06300007
#	Creating user name:	WinNT
#	Creation time:	15. 06. 2019 21:05

#	Modifying user name:	WinNT
#	Modification time:	15. 06. 2019 21:05

#	Program:	/corina/corina34_cracker 3.40 0067  02.08.2006

@<TRIPOS>MOLECULE
ASD06300007
 298  304    0    0    0
SMALL
NO_CHARGES


@<TRIPOS>ATOM
   1 N1             0.6925   -18.9429    -9.6920 N.am    
   2 C2           -19.3979   -20.5507   -16.2210 C.3     
   3 C3           -18.4405   -21.6968   -16.0187 C.2     
   4 N4           -20.4573   -20.6152   -15.2112 N.am    
   5 O5           -18.6250   -22.4895   -15.1195 O.2     
   6 C6           -20.3194   -17.4958   -15.4047 C.ar    
   7 C7           -21.1709   -16.4479   -15.7008 C.ar    
   8 C8           -21.2756   -15.9884   -17.0004 C.ar    
   9 C9           -20.5285   -16.5766   -18.0038 C.ar    
  10 C10          -19.6773   -17.6248   -17.7077 C.ar    
  11 C11          -19.5726   -18.0842   -16.4082 C.ar    
  12 C12          -18.6439   -19.2263   -16.0853 C.3     
  13 C13          -15.4117   -22.4077   -15.4995 C.3     
  14 C14          -16.3888   -22.8880   -16.5745 C.3     
  15 C15          -15.6319   -23.1924   -17.8415 C.2     
  16 N16          -17.3793   -21.8410   -16.8370 N.am    
  17 O17          -15.8091   -22.5146   -18.8315 O.2     
  18 C18          -14.8293   -21.0532   -15.9082 C.3     
  19 C19          -14.1504   -20.4046   -14.7002 C.3     
  20 C20          -13.8013   -21.2556   -17.0232 C.3     
  21 C21          -22.2741   -19.4318   -13.1378 C.3     
  22 C22          -22.7479   -20.1214   -14.4187 C.3     
  23 C23          -21.6581   -20.0551   -15.4575 C.2     
  24 N24          -23.9453   -19.4449   -14.9233 N.am    
  25 O25          -21.8617   -19.4976   -16.5152 O.2     
  26 N26          -23.8659   -19.0857    -9.7155 N.pl3   
  27 C27          -23.6586   -18.5470    -8.4677 C.2     
  28 N28          -22.5632   -17.8869    -8.2166 N.2     
  29 N29          -24.6068   -18.7047    -7.4847 N.pl3   
  30 C30          -23.3293   -19.6073   -12.0439 C.3     
  31 C31          -22.8555   -18.9177   -10.7629 C.3     
  32 C32           -7.1193   -26.2159   -22.3236 C.3     
  33 C33           -7.1530   -25.4305   -21.0110 C.3     
  34 C34           -5.8192   -25.5498   -20.3198 C.2     
  35 N35           -8.2023   -25.9729   -20.1443 N.am    
  36 O36           -5.7264   -26.1744   -19.2844 O.2     
  37 C37           -8.4277   -25.9934   -23.0848 C.3     
  38 C38           -8.3940   -26.7788   -24.3974 C.3     
  39 C39           -9.7025   -26.5563   -25.1586 C.3     
  40 N40           -9.6701   -27.3103   -26.4189 N.3     
  41 C41          -26.2870   -17.5848   -14.6848 C.3     
  42 C42          -26.3922   -19.0851   -14.9658 C.3     
  43 C43          -25.1604   -19.7810   -14.4467 C.2     
  44 N44          -27.5774   -19.6255   -14.2953 N.am    
  45 O45          -25.2625   -20.6434   -13.6002 O.2     
  46 C46          -26.3018   -17.3502   -13.1963 C.2     
  47 O47          -26.3417   -18.2893   -12.4371 O.2     
  48 O48          -26.2706   -16.0980   -12.7138 O.3     
  49 C49          -10.6455   -27.6217   -19.5854 C.3     
  50 C50          -10.5538   -26.1072   -19.3888 C.3     
  51 C51           -9.4745   -25.5493   -20.2803 C.2     
  52 N52          -11.8379   -25.4915   -19.7327 N.am    
  53 O53           -9.7507   -24.7192   -21.1203 O.2     
  54 C54          -11.6387   -28.1959   -18.6082 C.2     
  55 C55          -11.4100   -28.4938   -17.3194 C.2     
  56 N56          -12.5474   -28.9958   -16.7478 N.pl3   
  57 C57          -13.5613   -29.0341   -17.6785 C.ar    
  58 C58          -13.0385   -28.5289   -18.8828 C.ar    
  59 C59          -14.8898   -29.4446   -17.6313 C.ar    
  60 C60          -15.6732   -29.3579   -18.7610 C.ar    
  61 C61          -15.1507   -28.8644   -19.9488 C.ar    
  62 C62          -13.8528   -28.4426   -20.0138 C.ar    
  63 C63          -14.8768   -25.4052   -20.0093 C.3     
  64 C64          -14.0220   -24.5137   -19.1063 C.3     
  65 C65          -12.7388   -25.2268   -18.7658 C.2     
  66 N66          -14.7579   -24.2178   -17.8745 N.am    
  67 O67          -12.5167   -25.5625   -17.6217 O.2     
  68 C68          -16.1239   -24.6370   -20.4513 C.3     
  69 C69          -16.9659   -25.5151   -21.3408 C.2     
  70 O70          -16.6040   -26.6442   -21.5961 O.2     
  71 N71          -18.1209   -25.0457   -21.8525 N.am    
  72 C72           -2.1295   -21.3410   -17.7828 C.3     
  73 C73           -2.4154   -22.7318   -17.2128 C.3     
  74 C74           -1.3721   -23.0762   -16.1813 C.2     
  75 N75           -2.3779   -23.7198   -18.2939 N.am    
  76 O76           -0.6658   -24.0501   -16.3348 O.2     
  77 C77           -0.8237   -21.3749   -18.5795 C.3     
  78 C78           -0.6293   -20.0377   -19.2971 C.3     
  79 C79            0.3487   -21.6177   -17.6270 C.3     
  80 C80            2.9124   -20.4171   -11.0700 C.3     
  81 C81            1.5004   -20.2451   -11.6336 C.3     
  82 C82            0.5334   -20.0080   -10.5024 C.2     
  83 N83            1.1139   -21.4569   -12.3605 N.am    
  84 O84           -0.3879   -20.7755   -10.3212 O.2     
  85 N85            6.2795   -20.8166   -12.7637 N.pl3   
  86 C86            7.6189   -20.9788   -12.4993 C.2     
  87 N87            8.0378   -21.0335   -11.2662 N.2     
  88 N88            8.5164   -21.0832   -13.5355 N.pl3   
  89 C89            3.9112   -20.5333   -12.2231 C.3     
  90 C90            5.3232   -20.7053   -11.6595 C.3     
  91 C91          -30.9818   -16.5958   -17.9726 C.2     
  92 N92          -29.9690   -14.6863   -19.0759 N.am    
  93 C93          -30.2244   -15.3081   -17.7742 C.3     
  94 C94          -31.0533   -14.3571   -16.9085 C.3     
  95 C95          -30.2347   -13.1010   -16.6034 C.3     
  96 C96          -31.0636   -12.1500   -15.7377 C.3     
  97 C97          -30.2450   -10.8938   -15.4326 C.3     
  98 O98          -31.5121   -16.8273   -19.0329 O.2     
  99 C99           -0.7825   -23.6600   -13.1027 C.3     
 100 C100          -0.2098   -22.6366   -14.0853 C.3     
 101 C101           0.1879   -21.3901   -13.3375 C.2     
 102 N102          -1.2240   -22.3019   -15.0881 N.am    
 103 O103          -0.3253   -20.3268   -13.6149 O.2     
 104 C104          -1.0703   -24.9693   -13.8400 C.3     
 105 C105          -1.6343   -25.9773   -12.8721 C.2     
 106 O106          -1.7902   -25.6791   -11.7116 O.2     
 107 O107          -1.9637   -27.2065   -13.2992 O.3     
 108 C108         -30.0243   -19.9440   -14.1216 C.3     
 109 C109         -28.7928   -19.4899   -14.8620 C.2     
 110 N110         -31.2213   -19.4305   -14.8009 N.3     
 111 O111         -28.8953   -19.0025   -15.9678 O.2     
 112 C112         -32.4615   -22.1492   -13.8062 C.ar    
 113 C113         -33.5184   -22.5664   -13.0189 C.ar    
 114 C114         -33.3350   -22.7620   -11.6628 C.ar    
 115 C115         -32.0946   -22.5408   -11.0940 C.ar    
 116 C116         -31.0379   -22.1231   -11.8813 C.ar    
 117 C117         -31.2213   -21.9275   -13.2374 C.ar    
 118 C118         -30.0690   -21.4731   -14.0957 C.3     
 119 C119         -31.8337   -18.8685   -17.0619 C.3     
 120 C120         -31.0763   -17.5809   -16.8635 C.2     
 121 N121         -31.2832   -19.9021   -16.1749 N.3     
 122 O122         -30.5460   -17.3493   -15.8033 O.2     
 123 C123         -34.3895   -20.8063   -16.0676 C.ar    
 124 C124         -35.1059   -21.9490   -16.3704 C.ar    
 125 C125         -35.5246   -22.1788   -17.6676 C.ar    
 126 C126         -35.2274   -21.2656   -18.6619 C.ar    
 127 C127         -34.5106   -20.1231   -18.3592 C.ar    
 128 C128         -34.0918   -19.8933   -17.0620 C.ar    
 129 C129         -33.3111   -18.6472   -16.7318 C.3     
 130 C130         -29.8763   -12.3693   -20.9794 C.3     
 131 C131         -28.6636   -13.2063   -20.5673 C.3     
 132 C132         -28.9264   -13.8460   -19.2283 C.2     
 133 N133         -27.4837   -12.3431   -20.4730 N.am    
 134 O134         -28.1996   -13.6046   -18.2879 O.2     
 135 O135         -30.1781   -11.4279   -19.9476 O.3     
 136 C136          -2.3057   -24.7573   -21.1079 C.3     
 137 C137          -3.4572   -24.9833   -20.1262 C.3     
 138 C138          -3.4536   -23.8913   -19.0876 C.2     
 139 N139          -4.7294   -24.9622   -20.8524 N.am    
 140 O140          -4.4186   -23.1668   -18.9661 O.2     
 141 C141          -2.2378   -25.9098   -22.0764 C.2     
 142 C142          -1.4915   -27.0182   -21.9476 C.2     
 143 N143          -1.6893   -27.8412   -23.0227 N.pl3   
 144 C144          -2.5905   -27.2679   -23.8915 C.ar    
 145 C145          -2.9784   -26.0360   -23.3340 C.ar    
 146 C146          -3.1334   -27.6662   -25.1090 C.ar    
 147 C147          -4.0361   -26.8505   -25.7550 C.ar    
 148 C148          -4.4109   -25.6327   -25.2037 C.ar    
 149 C149          -3.9008   -25.2285   -24.0023 C.ar    
 150 O150         -27.0825   -12.5397   -22.6461 O.2     
 151 C151         -26.7584   -12.0704   -21.5757 C.2     
 152 C152         -25.5446   -11.1824   -21.4787 C.3     
 153 H153           1.4294   -18.3290    -9.8369 H       
 154 H154           0.0678   -18.7880    -8.9663 H       
 155 H155         -19.8393   -20.6173   -17.2154 H       
 156 H156         -20.2945   -21.0611   -14.3653 H       
 157 H157         -20.2342   -17.8518   -14.3887 H       
 158 H158         -21.7546   -15.9884   -14.9169 H       
 159 H159         -21.9414   -15.1702   -17.2318 H       
 160 H160         -20.6108   -16.2181   -19.0192 H       
 161 H161         -19.0938   -18.0845   -18.4917 H       
 162 H162         -18.2780   -19.1196   -15.0641 H       
 163 H163         -17.8010   -19.2157   -16.7763 H       
 164 H164         -15.9374   -22.3056   -14.5502 H       
 165 H165         -14.6049   -23.1326   -15.3919 H       
 166 H166         -16.8955   -23.7889   -16.2286 H       
 167 H167         -17.2714   -21.2515   -17.5997 H       
 168 H168         -15.6304   -20.4062   -16.2656 H       
 169 H169         -13.3493   -21.0516   -14.3428 H       
 170 H170         -13.7355   -19.4396   -14.9913 H       
 171 H171         -14.8827   -20.2604   -13.9059 H       
 172 H172         -13.0224   -21.9365   -16.6801 H       
 173 H173         -14.2936   -21.6785   -17.8989 H       
 174 H174         -13.3556   -20.2960   -17.2850 H       
 175 H175         -21.3346   -19.8777   -12.8112 H       
 176 H176         -22.1243   -18.3696   -13.3311 H       
 177 H177         -22.9826   -21.1641   -14.2046 H       
 178 H178         -23.8637   -18.7552   -15.6004 H       
 179 H179         -24.6812   -19.5769    -9.9024 H       
 180 H180         -22.4169   -17.5068    -7.3362 H       
 181 H181         -25.4221   -19.1959    -7.6716 H       
 182 H182         -24.4606   -18.3246    -6.6044 H       
 183 H183         -24.2688   -19.1614   -12.3704 H       
 184 H184         -23.4791   -20.6695   -11.8506 H       
 185 H185         -22.7057   -17.8554   -10.9562 H       
 186 H186         -21.9160   -19.3636   -10.4364 H       
 187 H187          -6.2824   -25.8719   -22.9314 H       
 188 H188          -7.0000   -27.2778   -22.1087 H       
 189 H189          -7.3612   -24.3813   -21.2206 H       
 190 H190          -7.9814   -26.6368   -19.4725 H       
 191 H191          -9.2647   -26.3374   -22.4770 H       
 192 H192          -8.5470   -24.9315   -23.2997 H       
 193 H193          -7.5571   -26.4348   -25.0052 H       
 194 H194          -8.2747   -27.8407   -24.1825 H       
 195 H195         -10.5394   -26.9002   -24.5508 H       
 196 H196          -9.8217   -25.4944   -25.3735 H       
 197 H197         -10.5239   -27.1797   -26.9404 H       
 198 H198          -8.8658   -27.0554   -26.9722 H       
 199 H199         -25.3568   -17.2010   -15.1039 H       
 200 H200         -27.1315   -17.0693   -15.1423 H       
 201 H201         -26.4764   -19.2485   -16.0402 H       
 202 H202         -27.4875   -20.0808   -13.4436 H       
 203 H203         -26.2818   -15.9977   -11.7521 H       
 204 H204         -10.9711   -27.8369   -20.6031 H       
 205 H205          -9.6668   -28.0701   -19.4145 H       
 206 H206         -10.3138   -25.8897   -18.3480 H       
 207 H207         -12.0398   -25.2744   -20.6563 H       
 208 H208         -10.4678   -28.3580   -16.8094 H       
 209 H209         -12.6273   -29.2823   -15.8245 H       
 210 H210         -15.3054   -29.8302   -16.7121 H       
 211 H211         -16.7041   -29.6774   -18.7224 H       
 212 H212         -15.7783   -28.8034   -20.8257 H       
 213 H213         -13.4537   -28.0579   -20.9407 H       
 214 H214         -14.2984   -25.6945   -20.8867 H       
 215 H215         -15.1756   -26.2982   -19.4605 H       
 216 H216         -13.7937   -23.5830   -19.6256 H       
 217 H217         -14.6161   -24.7599   -17.0827 H       
 218 H218         -16.7024   -24.3477   -19.5739 H       
 219 H219         -15.8251   -23.7440   -21.0002 H       
 220 H220         -18.4104   -24.1427   -21.6483 H       
 221 H221         -18.6628   -25.6109   -22.4251 H       
 222 H222          -2.9474   -21.0418   -18.4382 H       
 223 H223          -2.0382   -20.6253   -16.9658 H       
 224 H224          -3.4015   -22.7385   -16.7485 H       
 225 H225          -1.5789   -24.2505   -18.4384 H       
 226 H226          -0.8673   -22.1787   -19.3144 H       
 227 H227          -0.5858   -19.2339   -18.5622 H       
 228 H228           0.3009   -20.0618   -19.8647 H       
 229 H229          -1.4646   -19.8647   -19.9757 H       
 230 H230           0.3192   -22.6470   -17.2693 H       
 231 H231           1.2869   -21.4429   -18.1536 H       
 232 H232           0.2754   -20.9363   -16.7794 H       
 233 H233           3.1660   -19.5534   -10.4553 H       
 234 H234           2.9532   -21.3206   -10.4615 H       
 235 H235           1.4816   -19.3926   -12.3125 H       
 236 H236           1.5243   -22.3073   -12.1387 H       
 237 H237           5.9678   -20.7758   -13.6813 H       
 238 H238           8.9828   -21.1480   -11.0797 H       
 239 H239           8.2046   -21.0424   -14.4531 H       
 240 H240           9.4614   -21.1976   -13.3490 H       
 241 H241           3.6576   -21.3971   -12.8378 H       
 242 H242           3.8704   -19.6299   -12.8316 H       
 243 H243           5.3640   -21.6088   -11.0511 H       
 244 H244           5.5767   -19.8416   -11.0449 H       
 245 H245         -30.5503   -14.8794   -19.8281 H       
 246 H246         -29.2761   -15.5170   -17.2790 H       
 247 H247         -31.9615   -14.0780   -17.4426 H       
 248 H248         -31.3186   -14.8535   -15.9751 H       
 249 H249         -29.3264   -13.3800   -16.0693 H       
 250 H250         -29.9694   -12.6046   -17.5368 H       
 251 H251         -31.9719   -11.8709   -16.2718 H       
 252 H252         -31.3289   -12.6463   -14.8043 H       
 253 H253         -29.3367   -11.1729   -14.8985 H       
 254 H254         -29.9797   -10.3975   -16.3660 H       
 255 H255         -30.8355   -10.2163   -14.8159 H       
 256 H256          -0.0608   -23.8424   -12.3064 H       
 257 H257          -1.7070   -23.2738   -12.6736 H       
 258 H258           0.6652   -23.0581   -14.5801 H       
 259 H259          -1.7889   -21.5229   -14.9653 H       
 260 H260          -1.7919   -24.7869   -14.6362 H       
 261 H261          -0.1457   -25.3555   -14.2690 H       
 262 H262          -2.3217   -27.8185   -12.6416 H       
 263 H263         -29.9950   -19.5641   -13.1004 H       
 264 H264         -32.0584   -19.6787   -14.2954 H       
 265 H265         -32.6037   -22.0007   -14.8664 H       
 266 H266         -34.4875   -22.7392   -13.4632 H       
 267 H267         -34.1609   -23.0873   -11.0475 H       
 268 H268         -31.9515   -22.6929   -10.0344 H       
 269 H269         -30.0689   -21.9499   -11.4369 H       
 270 H270         -30.2008   -21.8500   -15.1100 H       
 271 H271         -29.1357   -21.8570   -13.6839 H       
 272 H272         -31.7374   -19.1907   -18.0988 H       
 273 H273         -30.3757   -20.2065   -16.4940 H       
 274 H274         -34.0661   -20.6245   -15.0533 H       
 275 H275         -35.3381   -22.6625   -15.5936 H       
 276 H276         -36.0837   -23.0720   -17.9043 H       
 277 H277         -35.5540   -21.4455   -19.6755 H       
 278 H278         -34.2780   -19.4098   -19.1361 H       
 279 H279         -33.4166   -18.4231   -15.6703 H       
 280 H280         -33.6936   -17.8125   -17.3192 H       
 281 H281         -29.6527   -11.8363   -21.9035 H       
 282 H282         -30.7335   -13.0241   -21.1359 H       
 283 H283         -28.4876   -13.9822   -21.3123 H       
 284 H284         -27.2245   -11.9678   -19.6169 H       
 285 H285         -30.9378   -10.8619   -20.1414 H       
 286 H286          -2.4730   -23.8306   -21.6570 H       
 287 H287          -1.3672   -24.6893   -20.5577 H       
 288 H288          -3.3337   -25.9498   -19.6376 H       
 289 H289          -4.7873   -24.5255   -21.7166 H       
 290 H290          -0.8323   -27.2288   -21.1185 H       
 291 H291          -1.2585   -28.7004   -23.1534 H       
 292 H292          -2.8479   -28.6115   -25.5462 H       
 293 H293          -4.4561   -27.1613   -26.7002 H       
 294 H294          -5.1195   -25.0049   -25.7233 H       
 295 H295          -4.1986   -24.2808   -23.5784 H       
 296 H296         -25.4128   -10.8588   -20.4463 H       
 297 H297         -24.6628   -11.7359   -21.8015 H       
 298 H298         -25.6804   -10.3103   -22.1183 H       
@<TRIPOS>BOND
   1    1   82 am
   2    1  153 1
   3    1  154 1
   4    2    3 1
   5    2    4 1
   6    2   12 1
   7    2  155 1
   8    3    5 2
   9    3   16 am
  10    4   23 am
  11    4  156 1
  12    6    7 ar
  13    6   11 ar
  14    6  157 1
  15    7    8 ar
  16    7  158 1
  17    8    9 ar
  18    8  159 1
  19    9   10 ar
  20    9  160 1
  21   10   11 ar
  22   10  161 1
  23   11   12 1
  24   12  162 1
  25   12  163 1
  26   13   18 1
  27   13   14 1
  28   13  164 1
  29   13  165 1
  30   14   16 1
  31   14   15 1
  32   14  166 1
  33   15   17 2
  34   15   66 am
  35   16  167 1
  36   18   19 1
  37   18   20 1
  38   18  168 1
  39   19  169 1
  40   19  170 1
  41   19  171 1
  42   20  172 1
  43   20  173 1
  44   20  174 1
  45   21   30 1
  46   21   22 1
  47   21  175 1
  48   21  176 1
  49   22   24 1
  50   22   23 1
  51   22  177 1
  52   23   25 2
  53   24   43 am
  54   24  178 1
  55   26   31 1
  56   26   27 1
  57   26  179 1
  58   27   28 2
  59   27   29 1
  60   28  180 1
  61   29  181 1
  62   29  182 1
  63   30   31 1
  64   30  183 1
  65   30  184 1
  66   31  185 1
  67   31  186 1
  68   32   37 1
  69   32   33 1
  70   32  187 1
  71   32  188 1
  72   33   35 1
  73   33   34 1
  74   33  189 1
  75   34   36 2
  76   34  139 am
  77   35   51 am
  78   35  190 1
  79   37   38 1
  80   37  191 1
  81   37  192 1
  82   38   39 1
  83   38  193 1
  84   38  194 1
  85   39   40 1
  86   39  195 1
  87   39  196 1
  88   40  197 1
  89   40  198 1
  90   41   46 1
  91   41   42 1
  92   41  199 1
  93   41  200 1
  94   42   43 1
  95   42   44 1
  96   42  201 1
  97   43   45 2
  98   44  109 am
  99   44  202 1
 100   46   47 2
 101   46   48 1
 102   48  203 1
 103   49   54 1
 104   49   50 1
 105   49  204 1
 106   49  205 1
 107   50   51 1
 108   50   52 1
 109   50  206 1
 110   51   53 2
 111   52   65 am
 112   52  207 1
 113   54   55 2
 114   54   58 1
 115   55   56 1
 116   55  208 1
 117   56   57 1
 118   56  209 1
 119   57   58 ar
 120   57   59 ar
 121   58   62 ar
 122   59   60 ar
 123   59  210 1
 124   60   61 ar
 125   60  211 1
 126   61   62 ar
 127   61  212 1
 128   62  213 1
 129   63   68 1
 130   63   64 1
 131   63  214 1
 132   63  215 1
 133   64   66 1
 134   64   65 1
 135   64  216 1
 136   65   67 2
 137   66  217 1
 138   68   69 1
 139   68  218 1
 140   68  219 1
 141   69   70 2
 142   69   71 am
 143   71  220 1
 144   71  221 1
 145   72   77 1
 146   72   73 1
 147   72  222 1
 148   72  223 1
 149   73   75 1
 150   73   74 1
 151   73  224 1
 152   74   76 2
 153   74  102 am
 154   75  138 am
 155   75  225 1
 156   77   78 1
 157   77   79 1
 158   77  226 1
 159   78  227 1
 160   78  228 1
 161   78  229 1
 162   79  230 1
 163   79  231 1
 164   79  232 1
 165   80   89 1
 166   80   81 1
 167   80  233 1
 168   80  234 1
 169   81   83 1
 170   81   82 1
 171   81  235 1
 172   82   84 2
 173   83  101 am
 174   83  236 1
 175   85   90 1
 176   85   86 1
 177   85  237 1
 178   86   87 2
 179   86   88 1
 180   87  238 1
 181   88  239 1
 182   88  240 1
 183   89   90 1
 184   89  241 1
 185   89  242 1
 186   90  243 1
 187   90  244 1
 188   91   98 2
 189   91   93 1
 190   91  120 1
 191   92   93 1
 192   92  132 am
 193   92  245 1
 194   93   94 1
 195   93  246 1
 196   94   95 1
 197   94  247 1
 198   94  248 1
 199   95   96 1
 200   95  249 1
 201   95  250 1
 202   96   97 1
 203   96  251 1
 204   96  252 1
 205   97  253 1
 206   97  254 1
 207   97  255 1
 208   99  104 1
 209   99  100 1
 210   99  256 1
 211   99  257 1
 212  100  102 1
 213  100  101 1
 214  100  258 1
 215  101  103 2
 216  102  259 1
 217  104  105 1
 218  104  260 1
 219  104  261 1
 220  105  106 2
 221  105  107 1
 222  107  262 1
 223  108  109 1
 224  108  110 1
 225  108  118 1
 226  108  263 1
 227  109  111 2
 228  110  121 1
 229  110  264 1
 230  112  113 ar
 231  112  117 ar
 232  112  265 1
 233  113  114 ar
 234  113  266 1
 235  114  115 ar
 236  114  267 1
 237  115  116 ar
 238  115  268 1
 239  116  117 ar
 240  116  269 1
 241  117  118 1
 242  118  270 1
 243  118  271 1
 244  119  120 1
 245  119  121 1
 246  119  129 1
 247  119  272 1
 248  120  122 2
 249  121  273 1
 250  123  124 ar
 251  123  128 ar
 252  123  274 1
 253  124  125 ar
 254  124  275 1
 255  125  126 ar
 256  125  276 1
 257  126  127 ar
 258  126  277 1
 259  127  128 ar
 260  127  278 1
 261  128  129 1
 262  129  279 1
 263  129  280 1
 264  130  135 1
 265  130  131 1
 266  130  281 1
 267  130  282 1
 268  131  133 1
 269  131  132 1
 270  131  283 1
 271  132  134 2
 272  133  151 am
 273  133  284 1
 274  135  285 1
 275  136  141 1
 276  136  137 1
 277  136  286 1
 278  136  287 1
 279  137  138 1
 280  137  139 1
 281  137  288 1
 282  138  140 2
 283  139  289 1
 284  141  142 2
 285  141  145 1
 286  142  143 1
 287  142  290 1
 288  143  144 1
 289  143  291 1
 290  144  145 ar
 291  144  146 ar
 292  145  149 ar
 293  146  147 ar
 294  146  292 1
 295  147  148 ar
 296  147  293 1
 297  148  149 ar
 298  148  294 1
 299  149  295 1
 300  150  151 2
 301  151  152 1
 302  152  296 1
 303  152  297 1
 304  152  298 1

#	End of record

