#	Name: ASD01820110
#	Creating user name:	WinNT
#	Creation time:	15. 06. 2019 19:36

#	Modifying user name:	WinNT
#	Modification time:	15. 06. 2019 19:36

#	Program:	/corina/corina34_cracker 3.40 0067  02.08.2006

@<TRIPOS>MOLECULE
ASD01820110
  63   66    0    0    0
SMALL
NO_CHARGES


@<TRIPOS>ATOM
   1 C1             0.1600     1.2641     0.5564 C.3     
   2 C2             0.0014    -0.1570     0.0123 C.3     
   3 C3             0.9140    -1.1063     0.7914 C.3     
   4 C4            -1.4533    -0.6041     0.1700 C.3     
   5 C5             0.3849    -0.1818    -1.4687 C.3     
   6 H6            -0.3271     0.4153    -2.0384 H       
   7 N7             1.7305     0.3734    -1.6340 N.am    
   8 C8             2.0943     0.9192    -2.8114 C.2     
   9 O9             1.2793     1.0312    -3.7075 O.2     
  10 C10            3.4770     1.3796    -3.0128 C.2     
  11 C11            3.8929     1.8335    -4.2466 C.2     
  12 N12            5.1456     2.2612    -4.4668 N.pl3   
  13 C13            6.1111     2.2812    -3.4856 C.ar    
  14 N14            7.3356     2.7148    -3.7584 N.ar    
  15 C15            8.2811     2.7445    -2.8335 C.ar    
  16 C16            8.0346     2.3207    -1.5261 C.ar    
  17 C17            6.7885     1.8641    -1.1915 C.ar    
  18 C18            5.8035     1.8414    -2.1857 C.ar    
  19 C19            4.4400     1.3698    -1.8989 C.2     
  20 O20            4.1221     0.9829    -0.7875 O.2     
  21 N21            9.5428     3.2055    -3.1695 N.3     
  22 C22           10.5609     2.1362    -3.0074 C.3     
  23 C23           11.7350     2.6278    -3.8908 C.3     
  24 H24           12.3316     3.3704    -3.3610 H       
  25 O25           12.5499     1.5296    -4.3056 O.3     
  26 C26           11.0140     3.2665    -5.1000 C.3     
  27 H27           10.9602     2.5575    -5.9261 H       
  28 O28           11.6927     4.4550    -5.5109 O.3     
  29 C29            9.5999     3.6043    -4.5926 C.3     
  30 C30            5.4861     2.7066    -5.7519 C.ar    
  31 C31            5.9787     1.8091    -6.6923 C.ar    
  32 F32            6.1300     0.5061    -6.3690 F       
  33 C33            6.3133     2.2514    -7.9595 C.ar    
  34 C34            6.1580     3.5866    -8.2917 C.ar    
  35 F35            6.4852     4.0157    -9.5303 F       
  36 C36            5.6676     4.4830    -7.3571 C.ar    
  37 C37            5.3264     4.0456    -6.0900 C.ar    
  38 F38            4.8431     4.9197    -5.1802 F       
  39 C39            0.3626    -1.6247    -1.9772 C.3     
  40 F40           -0.9157    -2.1634    -1.7955 F       
  41 F41            0.6880    -1.6447    -3.3377 F       
  42 F42            1.2949    -2.3852    -1.2634 F       
  43 H43            1.1964     1.5826     0.4441 H       
  44 H44           -0.4901     1.9404     0.0014 H       
  45 H45           -0.1132     1.2818     1.6115 H       
  46 H46            0.7811    -0.9420     1.8607 H       
  47 H47            0.6586    -2.1375     0.5477 H       
  48 H48            1.9525    -0.9155     0.5209 H       
  49 H49           -2.0835    -0.0390    -0.5167 H       
  50 H50           -1.5330    -1.6676    -0.0553 H       
  51 H51           -1.7797    -0.4243     1.1943 H       
  52 H52            2.3596     0.3482    -0.8961 H       
  53 H53            3.1866     1.8447    -5.0636 H       
  54 H54            8.8203     2.3525    -0.7857 H       
  55 H55            6.5710     1.5307    -0.1876 H       
  56 H56           10.8710     2.0550    -1.9656 H       
  57 H57           10.1785     1.1826    -3.3715 H       
  58 H58           12.9631     1.0486    -3.5756 H       
  59 H59           11.2849     4.8994    -6.2667 H       
  60 H60            8.8574     3.0475    -5.1643 H       
  61 H61            9.4178     4.6749    -4.6858 H       
  62 H62            6.6963     1.5546    -8.6904 H       
  63 H63            5.5476     5.5238    -7.6190 H       
@<TRIPOS>BOND
   1    1    2 1
   2    1   43 1
   3    1   44 1
   4    1   45 1
   5    2    3 1
   6    2    4 1
   7    2    5 1
   8    3   46 1
   9    3   47 1
  10    3   48 1
  11    4   49 1
  12    4   50 1
  13    4   51 1
  14    5    6 1
  15    5    7 1
  16    5   39 1
  17    7    8 am
  18    7   52 1
  19    8    9 2
  20    8   10 1
  21   10   19 1
  22   10   11 2
  23   11   12 1
  24   11   53 1
  25   12   13 1
  26   12   30 1
  27   13   18 ar
  28   13   14 ar
  29   14   15 ar
  30   15   16 ar
  31   15   21 1
  32   16   17 ar
  33   16   54 1
  34   17   18 ar
  35   17   55 1
  36   18   19 1
  37   19   20 2
  38   21   29 1
  39   21   22 1
  40   22   23 1
  41   22   56 1
  42   22   57 1
  43   23   24 1
  44   23   25 1
  45   23   26 1
  46   25   58 1
  47   26   27 1
  48   26   28 1
  49   26   29 1
  50   28   59 1
  51   29   60 1
  52   29   61 1
  53   30   37 ar
  54   30   31 ar
  55   31   32 1
  56   31   33 ar
  57   33   34 ar
  58   33   62 1
  59   34   35 1
  60   34   36 ar
  61   36   37 ar
  62   36   63 1
  63   37   38 1
  64   39   40 1
  65   39   41 1
  66   39   42 1

#	End of record

