#	Name: ASD03731895
#	Creating user name:	WinNT
#	Creation time:	15. 06. 2019 20:46

#	Modifying user name:	WinNT
#	Modification time:	15. 06. 2019 20:46

#	Program:	/corina/corina34_cracker 3.40 0067  02.08.2006

@<TRIPOS>MOLECULE
ASD03731895
  42   44    0    0    0
SMALL
NO_CHARGES


@<TRIPOS>ATOM
   1 C1             0.2691     1.4268     0.2039 C.2     
   2 C2             0.2434    -0.0387     0.0583 C.ar    
   3 C3             1.4355    -0.7718     0.1191 C.ar    
   4 C4             1.4054    -2.1447    -0.0179 C.ar    
   5 C5             0.1960    -2.7983    -0.2158 C.ar    
   6 C6            -0.9905    -2.0730    -0.2772 C.ar    
   7 C7            -0.9718    -0.7034    -0.1353 C.ar    
   8 O8             1.3256     2.0019     0.3771 O.2     
   9 O9            -0.8786     2.1306     0.1395 O.3     
  10 F10            2.6121    -0.1363     0.3111 F       
  11 O11            0.1710    -4.1484    -0.3501 O.3     
  12 C12            1.3345    -4.8286    -0.1754 C.ar    
  13 C13            1.8279    -5.0443     1.1036 C.ar    
  14 C14            3.0103    -5.7362     1.2790 C.ar    
  15 C15            3.7028    -6.2144     0.1803 C.ar    
  16 C16            3.2126    -6.0005    -1.0956 C.ar    
  17 C17            2.0275    -5.3134    -1.2751 C.ar    
  18 C18            3.5469    -5.9703     2.6676 C.3     
  19 F19            2.6803    -5.3980     3.6050 F       
  20 F20            3.6465    -7.3457     2.9034 F       
  21 F21            4.8120    -5.3844     2.7836 F       
  22 Cl22           5.1891    -7.0834     0.4035 Cl      
  23 Cl23          -2.4978    -2.8975    -0.5259 Cl      
  24 C24           -0.7777     3.4839     0.2148 C.ar    
  25 C25           -0.3838     4.2143    -0.8970 C.ar    
  26 C26           -0.2824     5.5897    -0.8180 C.ar    
  27 C27           -0.5726     6.2385     0.3681 C.ar    
  28 C28           -0.9648     5.5128     1.4778 C.ar    
  29 C29           -1.0738     4.1377     1.4021 C.ar    
  30 C30           -0.4606     7.7390     0.4517 C.3     
  31 H31            2.3235    -2.7116     0.0283 H       
  32 H32           -1.8939    -0.1428    -0.1781 H       
  33 H33            1.2880    -4.6710     1.9612 H       
  34 H34            3.7547    -6.3741    -1.9517 H       
  35 H35            1.6430    -5.1501    -2.2710 H       
  36 H36           -0.1564     3.7080    -1.8235 H       
  37 H37            0.0241     6.1588    -1.6832 H       
  38 H38           -1.1906     6.0218     2.4031 H       
  39 H39           -1.3848     3.5718     2.2678 H       
  40 H40           -1.4157     8.1901     0.1827 H       
  41 H41           -0.1962     8.0275     1.4690 H       
  42 H42            0.3110     8.0846    -0.2362 H       
@<TRIPOS>BOND
   1    1    2 1
   2    1    8 2
   3    1    9 1
   4    2    3 ar
   5    2    7 ar
   6    3    4 ar
   7    3   10 1
   8    4    5 ar
   9    4   31 1
  10    5    6 ar
  11    5   11 1
  12    6    7 ar
  13    6   23 1
  14    7   32 1
  15    9   24 1
  16   11   12 1
  17   12   13 ar
  18   12   17 ar
  19   13   14 ar
  20   13   33 1
  21   14   15 ar
  22   14   18 1
  23   15   16 ar
  24   15   22 1
  25   16   17 ar
  26   16   34 1
  27   17   35 1
  28   18   19 1
  29   18   20 1
  30   18   21 1
  31   24   25 ar
  32   24   29 ar
  33   25   26 ar
  34   25   36 1
  35   26   27 ar
  36   26   37 1
  37   27   28 ar
  38   27   30 1
  39   28   29 ar
  40   28   38 1
  41   29   39 1
  42   30   40 1
  43   30   41 1
  44   30   42 1

#	End of record

