#	Name: ASD01884801
#	Creating user name:	WinNT
#	Creation time:	15. 06. 2019 19:48

#	Modifying user name:	WinNT
#	Modification time:	15. 06. 2019 19:48

#	Program:	/corina/corina34_cracker 3.40 0067  02.08.2006

@<TRIPOS>MOLECULE
ASD01884801
  42   45    0    0    0
SMALL
NO_CHARGES


@<TRIPOS>ATOM
   1 C1            -0.0734     1.5480     0.2550 C.3     
   2 C2            -0.0347     0.0253     0.1113 C.3     
   3 H3            -1.0518    -0.3666     0.1159 H       
   4 C4             0.6490    -0.3457    -1.2043 C.3     
   5 N5             1.0024    -1.7596    -1.2724 N.am    
   6 C6             1.5018    -2.4191    -0.1992 C.2     
   7 O7             1.9800    -3.5329    -0.2959 O.2     
   8 C8             1.4326    -1.7113     1.0926 C.2     
   9 C9             1.9939    -1.9965     2.3186 C.2     
  10 C10            1.6074    -0.9629     3.1969 C.2     
  11 N11            0.8561    -0.1130     2.5378 N.2     
  12 N12            0.7166    -0.5521     1.2281 N.pl3   
  13 C13            2.8390    -3.1617     2.6493 C.2     
  14 O14            3.0996    -3.9857     1.7945 O.2     
  15 N15            3.3212    -3.3114     3.8989 N.am    
  16 C16            4.0204    -4.4665     4.2420 C.ar    
  17 C17            4.6181    -4.5743     5.4946 C.ar    
  18 N18            5.2797    -5.6702     5.8159 N.ar    
  19 C19            5.3751    -6.6645     4.9496 C.ar    
  20 C20            4.7831    -6.5606     3.7045 C.ar    
  21 N21            4.1138    -5.4686     3.3779 N.ar    
  22 C22            0.8210    -2.4511    -2.4744 C.ar    
  23 C23            0.0217    -3.5863    -2.5099 C.ar    
  24 C24           -0.1566    -4.2676    -3.6982 C.ar    
  25 C25            0.4605    -3.8207    -4.8529 C.ar    
  26 Cl26           0.2341    -4.6794    -6.3445 Cl      
  27 C27            1.2584    -2.6887    -4.8209 C.ar    
  28 Cl28           2.0307    -2.1304    -6.2720 Cl      
  29 C29            1.4352    -2.0004    -3.6358 C.ar    
  30 H30            0.9439     1.9394     0.2504 H       
  31 H31           -0.6317     1.9774    -0.5769 H       
  32 H32           -0.5601     1.8121     1.1939 H       
  33 H33           -0.0232    -0.1103    -2.0294 H       
  34 H34            1.5559     0.2497    -1.3103 H       
  35 H35            1.8836    -0.8844     4.2381 H       
  36 H36            3.1814    -2.6149     4.5594 H       
  37 H37            4.5408    -3.7622     6.2024 H       
  38 H38            5.9171    -7.5601     5.2153 H       
  39 H39            4.8635    -7.3749     2.9996 H       
  40 H40           -0.4598    -3.9364    -1.6088 H       
  41 H41           -0.7781    -5.1504    -3.7258 H       
  42 H42            2.0537    -1.1153    -3.6118 H       
@<TRIPOS>BOND
   1    1    2 1
   2    1   30 1
   3    1   31 1
   4    1   32 1
   5    2    3 1
   6    2   12 1
   7    2    4 1
   8    4    5 1
   9    4   33 1
  10    4   34 1
  11    5    6 am
  12    5   22 1
  13    6    7 2
  14    6    8 1
  15    8   12 1
  16    8    9 2
  17    9   10 1
  18    9   13 1
  19   10   11 2
  20   10   35 1
  21   11   12 1
  22   13   14 2
  23   13   15 am
  24   15   16 1
  25   15   36 1
  26   16   21 ar
  27   16   17 ar
  28   17   18 ar
  29   17   37 1
  30   18   19 ar
  31   19   20 ar
  32   19   38 1
  33   20   21 ar
  34   20   39 1
  35   22   29 ar
  36   22   23 ar
  37   23   24 ar
  38   23   40 1
  39   24   25 ar
  40   24   41 1
  41   25   26 1
  42   25   27 ar
  43   27   28 1
  44   27   29 ar
  45   29   42 1

#	End of record

