#	Name: ASD00310106
#	Creating user name:	WinNT
#	Creation time:	15. 06. 2019 18:33

#	Modifying user name:	WinNT
#	Modification time:	15. 06. 2019 18:33

#	Program:	/corina/corina34_cracker 3.40 0067  02.08.2006

@<TRIPOS>MOLECULE
ASD00310106
  47   48    0    0    0
SMALL
NO_CHARGES


@<TRIPOS>ATOM
   1 N1             0.0779     1.3881     0.2206 N.am    
   2 C2             0.0312    -0.0721     0.0228 C.3     
   3 C3             1.4469    -0.5698     0.4071 C.3     
   4 C4             2.3385     0.5791    -0.1338 C.3     
   5 C5             1.4751     1.8335     0.1162 C.3     
   6 C6            -0.9850     2.1836     0.4529 C.2     
   7 O7            -2.1091     1.7245     0.4072 O.2     
   8 O8            -0.8012     3.4871     0.7356 O.3     
   9 C9            -1.0210    -0.7002     0.9390 C.3     
  10 O10           -2.3261    -0.3342     0.4865 O.3     
  11 C11           -3.3826    -0.8135     1.1964 C.ar    
  12 C12           -4.6823    -0.4966     0.8119 C.ar    
  13 C13           -5.7553    -0.9869     1.5378 C.ar    
  14 C14           -5.5338    -1.7899     2.6426 C.ar    
  15 C15           -4.2424    -2.1041     3.0245 C.ar    
  16 C16           -3.1675    -1.6225     2.2999 C.ar    
  17 O17           -4.8982     0.2932    -0.2740 O.3     
  18 C18           -6.2580     0.5768    -0.6099 C.3     
  19 Br19          -6.9997    -2.4584     3.6325 Br      
  20 C20           -1.9912     4.2839     0.9747 C.3     
  21 C21           -2.7590     3.7090     2.1667 C.3     
  22 C22           -1.5858     5.7278     1.2776 C.3     
  23 C23           -2.8828     4.2546    -0.2683 C.3     
  24 H24           -0.1835    -0.3070    -1.0197 H       
  25 H25            1.5471    -0.6662     1.4882 H       
  26 H26            1.6785    -1.5115    -0.0907 H       
  27 H27            3.2733     0.6370     0.4238 H       
  28 H28            2.5308     0.4493    -1.1988 H       
  29 H29            1.5812     2.5286    -0.7167 H       
  30 H30            1.7810     2.3151     1.0449 H       
  31 H31           -0.9201    -1.7853     0.9176 H       
  32 H32           -0.8759    -0.3418     1.9581 H       
  33 H33           -6.7647    -0.7421     1.2417 H       
  34 H34           -4.0730    -2.7305     3.8878 H       
  35 H35           -2.1600    -1.8736     2.5972 H       
  36 H36           -6.2886     1.2148    -1.4931 H       
  37 H37           -6.7832    -0.3556    -0.8168 H       
  38 H38           -6.7392     1.0876     0.2241 H       
  39 H39           -2.1238     3.7299     3.0523 H       
  40 H40           -3.6523     4.3072     2.3462 H       
  41 H41           -3.0478     2.6804     1.9509 H       
  42 H42           -1.0388     6.1374     0.4284 H       
  43 H43           -2.4791     6.3260     1.4571 H       
  44 H44           -0.9506     5.7487     2.1632 H       
  45 H45           -3.1716     3.2260    -0.4841 H       
  46 H46           -3.7761     4.8528    -0.0888 H       
  47 H47           -2.3358     4.6642    -1.1175 H       
@<TRIPOS>BOND
   1    1    2 1
   2    1    5 1
   3    1    6 am
   4    2    3 1
   5    2    9 1
   6    2   24 1
   7    3    4 1
   8    3   25 1
   9    3   26 1
  10    4    5 1
  11    4   27 1
  12    4   28 1
  13    5   29 1
  14    5   30 1
  15    6    7 2
  16    6    8 1
  17    8   20 1
  18    9   10 1
  19    9   31 1
  20    9   32 1
  21   10   11 1
  22   11   12 ar
  23   11   16 ar
  24   12   13 ar
  25   12   17 1
  26   13   14 ar
  27   13   33 1
  28   14   15 ar
  29   14   19 1
  30   15   16 ar
  31   15   34 1
  32   16   35 1
  33   17   18 1
  34   18   36 1
  35   18   37 1
  36   18   38 1
  37   20   21 1
  38   20   23 1
  39   20   22 1
  40   21   39 1
  41   21   40 1
  42   21   41 1
  43   22   42 1
  44   22   43 1
  45   22   44 1
  46   23   45 1
  47   23   46 1
  48   23   47 1

#	End of record

