#	Name: ASD03091893
#	Creating user name:	WinNT
#	Creation time:	15. 06. 2019 20:31

#	Modifying user name:	WinNT
#	Modification time:	15. 06. 2019 20:31

#	Program:	/corina/corina34_cracker 3.40 0067  02.08.2006

@<TRIPOS>MOLECULE
ASD03091893
  50   54    0    0    0
SMALL
NO_CHARGES


@<TRIPOS>ATOM
   1 C1            -0.0150     1.3951     0.0120 C.ar    
   2 C2            -1.2495     2.0685     0.0343 C.ar    
   3 C3            -2.4497     1.3139     0.0356 C.ar    
   4 C4            -2.3931    -0.0936     0.0126 C.ar    
   5 C5            -1.1947    -0.7309    -0.0091 C.ar    
   6 C6             0.0034    -0.0000    -0.0093 C.ar    
   7 O7             1.1602     2.0650     0.0162 O.3     
   8 C8             2.2582     1.4564     0.6964 C.3     
   9 N9             2.4079     0.0581     0.2908 N.am    
  10 C10            1.3159    -0.6756    -0.0259 C.2     
  11 C11           -3.6690    -0.8955     0.0125 C.3     
  12 C12           -4.1743    -1.0354    -1.4004 C.ar    
  13 C13           -5.0347    -0.0941    -1.9315 C.ar    
  14 C14           -3.7767    -2.1078    -2.1852 C.ar    
  15 C15           -4.2658    -2.1960    -3.4786 C.ar    
  16 C16           -5.1288    -1.2180    -3.9411 C.ar    
  17 N17           -5.4812    -0.2089    -3.1674 N.ar    
  18 O18            1.4125    -1.8531    -0.3143 O.2     
  19 C19            3.7404    -0.5474     0.2275 C.3     
  20 C20            4.5998     0.1758    -0.8300 C.3     
  21 C21            4.4629    -0.3734     1.5749 C.3     
  22 C22            5.7362     0.4495     1.2891 C.3     
  23 C23            5.4078     1.2166    -0.0158 C.3     
  24 O24            4.8154    -1.6507     2.1098 O.3     
  25 C25           -1.3165     3.4708     0.0562 C.ar    
  26 Cl26          -5.7492    -1.3161    -5.5595 Cl      
  27 C27           -3.6823     1.9865     0.0605 C.ar    
  28 C28           -2.5300     4.0885     0.0804 C.ar    
  29 C29           -3.7096     3.3479     0.0815 C.ar    
  30 H30           -1.1629    -1.8103    -0.0264 H       
  31 H31            3.1731     1.9991     0.4586 H       
  32 H32            2.0840     1.5016     1.7715 H       
  33 H33           -3.4768    -1.8842     0.4292 H       
  34 H34           -4.4186    -0.3857     0.6177 H       
  35 H35           -5.3457     0.7456    -1.3277 H       
  36 H36           -3.1014    -2.8561    -1.7974 H       
  37 H37           -3.9769    -3.0173    -4.1177 H       
  38 H38            3.6579    -1.6062    -0.0179 H       
  39 H39            5.2710    -0.5279    -1.3223 H       
  40 H40            3.9643     0.6742    -1.5621 H       
  41 H41            3.8222     0.1615     2.2758 H       
  42 H42            5.9300     1.1475     2.1035 H       
  43 H43            6.5909    -0.2100     1.1391 H       
  44 H44            6.3216     1.4934    -0.5415 H       
  45 H45            4.8009     2.0969     0.1960 H       
  46 H46            5.2745    -1.6081     2.9598 H       
  47 H47           -0.4095     4.0571     0.0544 H       
  48 H48           -4.6055     1.4260     0.0626 H       
  49 H49           -2.5783     5.1673     0.0976 H       
  50 H50           -4.6598     3.8608     0.1013 H       
@<TRIPOS>BOND
   1    1    6 ar
   2    1    7 1
   3    1    2 ar
   4    2    3 ar
   5    2   25 ar
   6    3    4 ar
   7    3   27 ar
   8    4    5 ar
   9    4   11 1
  10    5    6 ar
  11    5   30 1
  12    6   10 1
  13    7    8 1
  14    8    9 1
  15    8   31 1
  16    8   32 1
  17    9   10 am
  18    9   19 1
  19   10   18 2
  20   11   12 1
  21   11   33 1
  22   11   34 1
  23   12   14 ar
  24   12   13 ar
  25   13   17 ar
  26   13   35 1
  27   14   15 ar
  28   14   36 1
  29   15   16 ar
  30   15   37 1
  31   16   17 ar
  32   16   26 1
  33   19   21 1
  34   19   20 1
  35   19   38 1
  36   20   23 1
  37   20   39 1
  38   20   40 1
  39   21   22 1
  40   21   24 1
  41   21   41 1
  42   22   23 1
  43   22   42 1
  44   22   43 1
  45   23   44 1
  46   23   45 1
  47   24   46 1
  48   25   28 ar
  49   25   47 1
  50   27   29 ar
  51   27   48 1
  52   28   29 ar
  53   28   49 1
  54   29   50 1

#	End of record

