#	Name: ASD03430679
#	Creating user name:	WinNT
#	Creation time:	15. 06. 2019 20:41

#	Modifying user name:	WinNT
#	Modification time:	15. 06. 2019 20:41

#	Program:	/corina/corina34_cracker 3.40 0067  02.08.2006

@<TRIPOS>MOLECULE
ASD03430679
  66   72    0    0    0
SMALL
NO_CHARGES


@<TRIPOS>ATOM
   1 C1             2.6560     0.3876    -0.0117 C.ar    
   2 C2             2.0902    -0.8727    -0.0480 C.ar    
   3 C3             2.8800    -1.9816    -0.2646 C.ar    
   4 C4             4.2554    -1.8499    -0.4381 C.ar    
   5 C5             4.8201    -0.5789    -0.4058 C.ar    
   6 C6             4.0241     0.5335    -0.1941 C.ar    
   7 O7             4.8502    -3.0643    -0.6083 O.3     
   8 C8             2.5720    -3.4502    -0.3826 C.3     
   9 C9             3.8544    -4.0312    -0.9940 C.3     
  10 C10            0.9798    -4.6294     0.7985 C.ar    
  11 C11            2.2499    -4.0757     0.9418 C.ar    
  12 C12            1.3732    -3.7120    -1.2486 C.2     
  13 N13            0.4956    -4.3999    -0.4915 N.am    
  14 O14            1.2239    -3.3708    -2.4029 O.2     
  15 C15            2.9281    -4.1787     2.1354 C.ar    
  16 C16            2.3498    -4.8366     3.2068 C.ar    
  17 C17            1.0897    -5.3901     3.0757 C.ar    
  18 C18            0.4059    -5.2896     1.8816 C.ar    
  19 C19           -0.8136    -4.8545    -0.9664 C.3     
  20 C20           -1.8992    -4.1866    -0.1624 C.ar    
  21 C21           -3.0435    -4.8872     0.1701 C.ar    
  22 C22           -4.0394    -4.2745     0.9075 C.ar    
  23 C23           -3.8907    -2.9614     1.3129 C.ar    
  24 C24           -2.7460    -2.2610     0.9812 C.ar    
  25 C25           -1.7482    -2.8750     0.2475 C.ar    
  26 C26           -0.9727    -4.4952    -2.4212 C.ar    
  27 C27           -0.9342    -5.4847    -3.3857 C.ar    
  28 C28           -1.1628    -3.1768    -2.7908 C.ar    
  29 C29           -1.3088    -2.8473    -4.1254 C.ar    
  30 C30           -1.2642    -3.8361    -5.0904 C.ar    
  31 C31           -1.0801    -5.1552    -4.7203 C.ar    
  32 O32            4.5836     1.7716    -0.1647 O.3     
  33 C33            4.4972     4.1573     0.0582 C.ar    
  34 C34            4.6923     4.8492    -1.1225 C.ar    
  35 C35            5.4148     6.0278    -1.1216 C.ar    
  36 C36            5.9417     6.5146     0.0600 C.ar    
  37 C37            5.7458     5.8231     1.2408 C.ar    
  38 C38            5.0245     4.6438     1.2397 C.ar    
  39 C39            3.7043     2.8757     0.0582 C.3     
  40 H40            2.0354     1.2559     0.1534 H       
  41 H41            1.0259    -0.9893     0.0942 H       
  42 H42            5.8843    -0.4597    -0.5463 H       
  43 H43            3.7731    -4.0911    -2.0793 H       
  44 H44            4.0784    -5.0088    -0.5670 H       
  45 H45            3.9125    -3.7460     2.2356 H       
  46 H46            2.8819    -4.9178     4.1432 H       
  47 H47            0.6386    -5.9038     3.9118 H       
  48 H48           -0.5781    -5.7246     1.7868 H       
  49 H49           -0.8874    -5.9356    -0.8489 H       
  50 H50           -3.1597    -5.9132    -0.1467 H       
  51 H51           -4.9337    -4.8217     1.1666 H       
  52 H52           -4.6691    -2.4825     1.8884 H       
  53 H53           -2.6300    -1.2349     1.2977 H       
  54 H54           -0.8539    -2.3279    -0.0116 H       
  55 H55           -0.7898    -6.5152    -3.0967 H       
  56 H56           -1.1977    -2.4043    -2.0369 H       
  57 H57           -1.4580    -1.8173    -4.4141 H       
  58 H58           -1.3785    -3.5786    -6.1330 H       
  59 H59           -1.0452    -5.9277    -5.4742 H       
  60 H60            4.2806     4.4689    -2.0457 H       
  61 H61            5.5678     6.5680    -2.0442 H       
  62 H62            6.5067     7.4350     0.0606 H       
  63 H63            6.1580     6.2031     2.1639 H       
  64 H64            4.8721     4.1032     2.1621 H       
  65 H65            2.9569     2.9108    -0.7345 H       
  66 H66            3.2074     2.7559     1.0210 H       
@<TRIPOS>BOND
   1    1    2 ar
   2    1    6 ar
   3    1   40 1
   4    2    3 ar
   5    2   41 1
   6    3    4 ar
   7    3    8 1
   8    4    5 ar
   9    4    7 1
  10    5    6 ar
  11    5   42 1
  12    6   32 1
  13    7    9 1
  14    8    9 1
  15    8   11 1
  16    8   12 1
  17    9   43 1
  18    9   44 1
  19   10   11 ar
  20   10   13 1
  21   10   18 ar
  22   11   15 ar
  23   12   13 am
  24   12   14 2
  25   13   19 1
  26   15   16 ar
  27   15   45 1
  28   16   17 ar
  29   16   46 1
  30   17   18 ar
  31   17   47 1
  32   18   48 1
  33   19   20 1
  34   19   26 1
  35   19   49 1
  36   20   21 ar
  37   20   25 ar
  38   21   22 ar
  39   21   50 1
  40   22   23 ar
  41   22   51 1
  42   23   24 ar
  43   23   52 1
  44   24   25 ar
  45   24   53 1
  46   25   54 1
  47   26   27 ar
  48   26   28 ar
  49   27   31 ar
  50   27   55 1
  51   28   29 ar
  52   28   56 1
  53   29   30 ar
  54   29   57 1
  55   30   31 ar
  56   30   58 1
  57   31   59 1
  58   32   39 1
  59   33   34 ar
  60   33   38 ar
  61   33   39 1
  62   34   35 ar
  63   34   60 1
  64   35   36 ar
  65   35   61 1
  66   36   37 ar
  67   36   62 1
  68   37   38 ar
  69   37   63 1
  70   38   64 1
  71   39   65 1
  72   39   66 1

#	End of record

