#	Name: ASD00470001
#	Creating user name:	WinNT
#	Creation time:	15. 06. 2019 18:36

#	Modifying user name:	WinNT
#	Modification time:	15. 06. 2019 18:36

#	Program:	/corina/corina34_cracker 3.40 0067  02.08.2006

@<TRIPOS>MOLECULE
ASD00470001
  52   54    0    0    0
SMALL
NO_CHARGES


@<TRIPOS>ATOM
   1 C1             0.0422     1.5020    -0.0322 C.ar    
   2 C2             0.0021    -0.0041     0.0020 C.3     
   3 C3            -0.6309    -0.4677     1.3155 C.3     
   4 C4            -0.8171    -0.5112    -1.1568 C.ar    
   5 C5            -1.1089     2.2297     0.2051 C.ar    
   6 C6            -1.0721     3.6112     0.1736 C.ar    
   7 C7             0.1159     4.2650    -0.0946 C.ar    
   8 C8             1.2673     3.5374    -0.3309 C.ar    
   9 C9             1.2314     2.1559    -0.2952 C.ar    
  10 C10           -0.2055    -1.2047    -2.1844 C.ar    
  11 C11           -0.9569    -1.6699    -3.2474 C.ar    
  12 C12           -2.3199    -1.4419    -3.2826 C.ar    
  13 C13           -2.9315    -0.7491    -2.2546 C.ar    
  14 C14           -2.1808    -0.2877    -1.1894 C.ar    
  15 C15            0.2664    -0.0600     2.4858 C.3     
  16 N16           -0.3413    -0.5052     3.7470 N.3     
  17 C17            0.4945    -0.1302     4.8953 C.3     
  18 C18           -0.3779    -0.0223     6.1476 C.3     
  19 C19            1.5698    -1.1965     5.1133 C.3     
  20 C20           -1.3579     1.1104     5.9810 C.ar    
  21 C21           -2.5983     0.8741     5.4186 C.ar    
  22 C22           -3.4972     1.9131     5.2657 C.ar    
  23 C23           -3.1558     3.1884     5.6757 C.ar    
  24 C24           -1.9157     3.4245     6.2389 C.ar    
  25 C25           -1.0184     2.3847     6.3957 C.ar    
  26 H26            1.0164    -0.3963    -0.0708 H       
  27 H27           -1.6107    -0.0041     1.4302 H       
  28 H28           -0.7412    -1.5520     1.3029 H       
  29 H29           -2.0371     1.7188     0.4146 H       
  30 H30           -1.9716     4.1797     0.3583 H       
  31 H31            0.1445     5.3443    -0.1198 H       
  32 H32            2.1954     4.0482    -0.5408 H       
  33 H33            2.1309     1.5874    -0.4798 H       
  34 H34            0.8593    -1.3828    -2.1569 H       
  35 H35           -0.4790    -2.2111    -4.0506 H       
  36 H36           -2.9068    -1.8046    -4.1135 H       
  37 H37           -3.9963    -0.5707    -2.2822 H       
  38 H38           -2.6587     0.2535    -0.3862 H       
  39 H39            1.2462    -0.5236     2.3711 H       
  40 H40            0.3767     1.0243     2.4985 H       
  41 H41           -1.2768    -0.1403     3.8462 H       
  42 H42            0.9702     0.8309     4.7000 H       
  43 H43           -0.9224    -0.9553     6.2926 H       
  44 H44            0.2537     0.1684     7.0152 H       
  45 H45            1.0941    -2.1576     5.3086 H       
  46 H46            2.1914    -1.2734     4.2212 H       
  47 H47            2.1900    -0.9183     5.9653 H       
  48 H48           -2.8651    -0.1222     5.0983 H       
  49 H49           -4.4661     1.7286     4.8257 H       
  50 H50           -3.8578     4.0003     5.5556 H       
  51 H51           -1.6488     4.4209     6.5589 H       
  52 H52           -0.0496     2.5691     6.8358 H       
@<TRIPOS>BOND
   1    1    2 1
   2    1    5 ar
   3    1    9 ar
   4    2    3 1
   5    2    4 1
   6    2   26 1
   7    3   15 1
   8    3   27 1
   9    3   28 1
  10    4   10 ar
  11    4   14 ar
  12    5    6 ar
  13    5   29 1
  14    6    7 ar
  15    6   30 1
  16    7    8 ar
  17    7   31 1
  18    8    9 ar
  19    8   32 1
  20    9   33 1
  21   10   11 ar
  22   10   34 1
  23   11   12 ar
  24   11   35 1
  25   12   13 ar
  26   12   36 1
  27   13   14 ar
  28   13   37 1
  29   14   38 1
  30   15   16 1
  31   15   39 1
  32   15   40 1
  33   16   17 1
  34   16   41 1
  35   17   18 1
  36   17   19 1
  37   17   42 1
  38   18   20 1
  39   18   43 1
  40   18   44 1
  41   19   45 1
  42   19   46 1
  43   19   47 1
  44   20   21 ar
  45   20   25 ar
  46   21   22 ar
  47   21   48 1
  48   22   23 ar
  49   22   49 1
  50   23   24 ar
  51   23   50 1
  52   24   25 ar
  53   24   51 1
  54   25   52 1

#	End of record

