#	Name: ASD01900689
#	Creating user name:	WinNT
#	Creation time:	15. 06. 2019 19:52

#	Modifying user name:	WinNT
#	Modification time:	15. 06. 2019 19:52

#	Program:	/corina/corina34_cracker 3.40 0067  02.08.2006

@<TRIPOS>MOLECULE
ASD01900689
  31   34    0    0    0
SMALL
NO_CHARGES


@<TRIPOS>ATOM
   1 C1            -0.0183     1.4025     0.1324 C.ar    
   2 C2            -0.0081     0.0177     0.1214 C.ar    
   3 C3             1.1829    -0.6778     0.0630 C.ar    
   4 C4             2.3875     0.0113     0.0139 C.ar    
   5 C5             2.3724     1.4127     0.0292 C.ar    
   6 O6             3.5589    -0.6565    -0.0551 O.3     
   7 C7             4.7336    -0.0514     0.1915 C.2     
   8 C8             4.8724     1.2957     0.2223 C.2     
   9 C9             3.6750     2.1248    -0.0105 C.2     
  10 C10            5.9222    -0.8901     0.4397 C.ar    
  11 N11            7.0980    -0.3116     0.6865 N.ar    
  12 C12            8.1837    -1.0059     0.9137 C.ar    
  13 C13            8.1584    -2.4170     0.9071 C.ar    
  14 C14            6.9367    -3.0566     0.6507 C.ar    
  15 C15            5.8031    -2.2746     0.4194 C.ar    
  16 C16            1.1700     2.1048     0.0865 C.ar    
  17 C17            9.2279    -3.3716     1.1302 C.2     
  18 C18            8.8670    -4.6393     1.0535 C.2     
  19 S19            7.1578    -4.7986     0.6954 S.3     
  20 N20            3.7557     3.4134    -0.2381 N.2     
  21 O21            2.5973     4.1421    -0.6015 O.3     
  22 H22           -0.9575     1.9343     0.1726 H       
  23 H23           -0.9417    -0.5239     0.1592 H       
  24 H24            1.1779    -1.7578     0.0559 H       
  25 H25            5.8335     1.7502     0.4121 H       
  26 H26            9.1130    -0.4914     1.1089 H       
  27 H27            4.8488    -2.7392     0.2196 H       
  28 H28            1.1640     3.1847     0.0943 H       
  29 H29           10.2424    -3.0683     1.3426 H       
  30 H30            9.5395    -5.4728     1.1933 H       
  31 H31            2.7556     5.0846    -0.7486 H       
@<TRIPOS>BOND
   1    1    2 ar
   2    1   16 ar
   3    1   22 1
   4    2    3 ar
   5    2   23 1
   6    3    4 ar
   7    3   24 1
   8    4    5 ar
   9    4    6 1
  10    5   16 ar
  11    5    9 1
  12    6    7 1
  13    7    8 2
  14    7   10 1
  15    8    9 1
  16    8   25 1
  17    9   20 2
  18   10   11 ar
  19   10   15 ar
  20   11   12 ar
  21   12   13 ar
  22   12   26 1
  23   13   14 ar
  24   13   17 1
  25   14   15 ar
  26   14   19 1
  27   15   27 1
  28   16   28 1
  29   17   18 2
  30   17   29 1
  31   18   19 1
  32   18   30 1
  33   20   21 1
  34   21   31 1

#	End of record

