#	Name: ASD06660188
#	Creating user name:	WinNT
#	Creation time:	15. 06. 2019 21:08

#	Modifying user name:	WinNT
#	Modification time:	15. 06. 2019 21:08

#	Program:	/corina/corina34_cracker 3.40 0067  02.08.2006

@<TRIPOS>MOLECULE
ASD06660188
  67   70    0    0    0
SMALL
NO_CHARGES


@<TRIPOS>ATOM
   1 C1            -1.9785     1.7422     0.1635 C.2     
   2 C2            -1.6505     0.4758    -0.5846 C.3     
   3 C3            -2.3598     0.4861    -1.9402 C.3     
   4 O4            -1.0936     2.4973     0.4902 O.2     
   5 O5            -3.2542     2.0341     0.4620 O.3     
   6 C6            -2.1474    -0.8378    -2.6283 C.ar    
   7 C7            -2.9748    -1.9069    -2.3375 C.ar    
   8 C8            -2.7829    -3.1215    -2.9662 C.ar    
   9 C9            -1.7575    -3.2684    -3.8916 C.ar    
  10 C10           -0.9282    -2.1924    -4.1814 C.ar    
  11 C11           -1.1292    -0.9790    -3.5532 C.ar    
  12 N12           -1.5604    -4.4955    -4.5290 N.3     
  13 C13           -2.8487    -5.1229    -4.8778 C.3     
  14 C14           -2.2544    -6.4643    -4.4261 C.3     
  15 C15           -1.3640    -5.5766    -3.5452 C.3     
  16 C16           -3.2271    -7.3486    -3.6434 C.3     
  17 N17           -2.5977    -8.6426    -3.3684 N.pl3   
  18 C18           -3.2937    -9.6185    -2.6647 C.ar    
  19 C19           -4.5879    -9.3599    -2.2242 C.ar    
  20 C20           -5.2688   -10.3399    -1.5252 C.ar    
  21 C21           -4.6304   -11.5505    -1.2890 C.ar    
  22 C22           -3.3450   -11.7391    -1.7551 C.ar    
  23 N23           -2.7212   -10.7879    -2.4242 N.ar    
  24 C24            0.6036     0.0282     0.2252 C.2     
  25 C25            2.0512    -0.1590    -0.0097 C.ar    
  26 C26            2.5641    -1.4360    -0.2436 C.ar    
  27 C27            3.9157    -1.6036    -0.4625 C.ar    
  28 C28            4.7626    -0.5094    -0.4501 C.ar    
  29 C29            4.2608     0.7589    -0.2190 C.ar    
  30 C30            2.9100     0.9411    -0.0043 C.ar    
  31 O31            0.1405    -0.1462     1.3355 O.2     
  32 N32           -0.2026     0.3920    -0.7917 N.am    
  33 C33            2.3642     2.3240     0.2417 C.3     
  34 C34            1.6434    -2.6290    -0.2564 C.3     
  35 C35            1.0332    -2.7873    -1.6505 C.3     
  36 H36           -1.9852    -0.3851    -0.0059 H       
  37 H37           -3.4268     0.6508    -1.7908 H       
  38 H38           -1.9516     1.2861    -2.5578 H       
  39 H39           -3.4152     2.8575     0.9429 H       
  40 H40           -3.7716    -1.7921    -1.6176 H       
  41 H41           -3.4292    -3.9563    -2.7383 H       
  42 H42           -0.1300    -2.3032    -4.9005 H       
  43 H43           -0.4878    -0.1406    -3.7816 H       
  44 H44           -3.6785    -4.7846    -4.2573 H       
  45 H45           -3.0756    -5.0853    -5.9433 H       
  46 H46           -1.7162    -7.0000    -5.2080 H       
  47 H47           -0.3327    -5.9235    -3.4813 H       
  48 H48           -1.7976    -5.3594    -2.5691 H       
  49 H49           -3.4837    -6.8621    -2.7023 H       
  50 H50           -4.1320    -7.5024    -4.2314 H       
  51 H51           -1.6952    -8.8183    -3.6775 H       
  52 H52           -5.0543    -8.4068    -2.4252 H       
  53 H53           -6.2743   -10.1676    -1.1707 H       
  54 H54           -5.1345   -12.3362    -0.7459 H       
  55 H55           -2.8448   -12.6789    -1.5736 H       
  56 H56            4.3138    -2.5911    -0.6435 H       
  57 H57            5.8202    -0.6461    -0.6214 H       
  58 H58            4.9272     1.6088    -0.2106 H       
  59 H59            0.1758     0.5984    -1.6606 H       
  60 H60            2.3812     2.5365     1.3107 H       
  61 H61            2.9779     3.0556    -0.2839 H       
  62 H62            1.3388     2.3803    -0.1236 H       
  63 H63            2.2078    -3.5263    -0.0027 H       
  64 H64            0.8477    -2.4817     0.4739 H       
  65 H65            0.5521    -1.8545    -1.9445 H       
  66 H66            1.8188    -3.0320    -2.3653 H       
  67 H67            0.2940    -3.5882    -1.6347 H       
@<TRIPOS>BOND
   1    1    2 1
   2    1    4 2
   3    1    5 1
   4    2    3 1
   5    2   32 1
   6    2   36 1
   7    3    6 1
   8    3   37 1
   9    3   38 1
  10    5   39 1
  11    6    7 ar
  12    6   11 ar
  13    7    8 ar
  14    7   40 1
  15    8    9 ar
  16    8   41 1
  17    9   10 ar
  18    9   12 1
  19   10   11 ar
  20   10   42 1
  21   11   43 1
  22   12   13 1
  23   12   15 1
  24   13   14 1
  25   13   44 1
  26   13   45 1
  27   14   15 1
  28   14   16 1
  29   14   46 1
  30   15   47 1
  31   15   48 1
  32   16   17 1
  33   16   49 1
  34   16   50 1
  35   17   18 1
  36   17   51 1
  37   18   19 ar
  38   18   23 ar
  39   19   20 ar
  40   19   52 1
  41   20   21 ar
  42   20   53 1
  43   21   22 ar
  44   21   54 1
  45   22   23 ar
  46   22   55 1
  47   24   25 1
  48   24   31 2
  49   24   32 am
  50   25   26 ar
  51   25   30 ar
  52   26   27 ar
  53   26   34 1
  54   27   28 ar
  55   27   56 1
  56   28   29 ar
  57   28   57 1
  58   29   30 ar
  59   29   58 1
  60   30   33 1
  61   32   59 1
  62   33   60 1
  63   33   61 1
  64   33   62 1
  65   34   35 1
  66   34   63 1
  67   34   64 1
  68   35   65 1
  69   35   66 1
  70   35   67 1

#	End of record

