#	Name: ASD01940179
#	Creating user name:	WinNT
#	Creation time:	15. 06. 2019 20:11

#	Modifying user name:	WinNT
#	Modification time:	15. 06. 2019 20:11

#	Program:	/corina/corina34_cracker 3.40 0067  02.08.2006

@<TRIPOS>MOLECULE
ASD01940179
  48   50    0    0    0
SMALL
NO_CHARGES


@<TRIPOS>ATOM
   1 C1             0.0096     0.2376     0.7908 C.ar    
   2 C2             0.8335    -0.5798     0.0367 C.ar    
   3 C3             0.2993    -1.3700    -0.9674 C.ar    
   4 C4            -1.0623    -1.3458    -1.2213 C.ar    
   5 C5            -1.8944    -0.5275    -0.4680 C.ar    
   6 C6            -1.3569     0.2628     0.5456 C.ar    
   7 N7            -2.1930     1.0911     1.3095 N.am    
   8 S8            -2.0105     1.1614     2.9539 S.o2    
   9 O9            -3.3133     0.9091     3.4622 O.2     
  10 O10           -0.9338     0.2746     3.2252 O.2     
  11 F11            1.1078    -2.1659    -1.7009 F       
  12 F12           -1.5806    -2.1174    -2.2017 F       
  13 N13           -3.2724    -0.5013    -0.7232 N.pl3   
  14 C14           -4.1395    -1.2909     0.0380 C.ar    
  15 C15           -5.4880    -1.3676    -0.2965 C.ar    
  16 C16           -3.6562    -2.0049     1.1261 C.ar    
  17 C17           -4.5156    -2.7844     1.8765 C.ar    
  18 C18           -5.8559    -2.8549     1.5454 C.ar    
  19 C19           -6.3417    -2.1495     0.4590 C.ar    
  20 F20           -5.9623    -0.6787    -1.3575 F       
  21 F21            0.5344     1.0071     1.7694 F       
  22 C22           -6.7892    -3.7068     2.3666 C.3     
  23 C23           -1.5204     2.8769     3.2820 C.3     
  24 C24           -2.7303     3.6861     3.7535 C.3     
  25 C25           -0.4131     2.9137     4.3497 C.3     
  26 C26           -0.9258     3.5096     2.0069 C.3     
  27 C27            0.2219     4.4092     2.5290 C.3     
  28 C28            0.8170     3.5671     3.6866 C.3     
  29 H29            1.8956    -0.6012     0.2314 H       
  30 H30           -2.8780     1.6225     0.8743 H       
  31 H31           -3.6245     0.0647    -1.4279 H       
  32 H32           -2.6092    -1.9514     1.3856 H       
  33 H33           -4.1395    -3.3398     2.7229 H       
  34 H34           -7.3893    -2.2068     0.2031 H       
  35 H35           -7.2076    -3.1099     3.1770 H       
  36 H36           -7.5958    -4.0761     1.7334 H       
  37 H37           -6.2390    -4.5504     2.7834 H       
  38 H38           -3.1203     3.2532     4.6746 H       
  39 H39           -2.4287     4.7176     3.9359 H       
  40 H40           -3.5037     3.6641     2.9857 H       
  41 H41           -0.7373     3.5088     5.2035 H       
  42 H42           -0.1702     1.9008     4.6708 H       
  43 H43           -0.5342     2.7374     1.3448 H       
  44 H44           -1.6769     4.1094     1.4927 H       
  45 H45            0.9659     4.5770     1.7503 H       
  46 H46           -0.1687     5.3560     2.9020 H       
  47 H47            1.3375     4.2091     4.3973 H       
  48 H48            1.4903     2.8041     3.2962 H       
@<TRIPOS>BOND
   1    1    2 ar
   2    1   21 1
   3    1    6 ar
   4    2    3 ar
   5    2   29 1
   6    3    4 ar
   7    3   11 1
   8    4    5 ar
   9    4   12 1
  10    5    6 ar
  11    5   13 1
  12    6    7 1
  13    7    8 am
  14    7   30 1
  15    8    9 2
  16    8   10 2
  17    8   23 1
  18   13   14 1
  19   13   31 1
  20   14   15 ar
  21   14   16 ar
  22   15   20 1
  23   15   19 ar
  24   16   17 ar
  25   16   32 1
  26   17   18 ar
  27   17   33 1
  28   18   19 ar
  29   18   22 1
  30   19   34 1
  31   22   35 1
  32   22   36 1
  33   22   37 1
  34   23   24 1
  35   23   25 1
  36   23   26 1
  37   24   38 1
  38   24   39 1
  39   24   40 1
  40   25   28 1
  41   25   41 1
  42   25   42 1
  43   26   27 1
  44   26   43 1
  45   26   44 1
  46   27   28 1
  47   27   45 1
  48   27   46 1
  49   28   47 1
  50   28   48 1

#	End of record

