#	Name: ASD06610035
#	Creating user name:	WinNT
#	Creation time:	15. 06. 2019 21:07

#	Modifying user name:	WinNT
#	Modification time:	15. 06. 2019 21:07

#	Program:	/corina/corina34_cracker 3.40 0067  02.08.2006

@<TRIPOS>MOLECULE
ASD06610035
 329  330    0    0    0
SMALL
NO_CHARGES


@<TRIPOS>ATOM
   1 C1            -0.2209     0.1369     0.9325 C.2     
   2 O2            -0.2177    -1.0684     0.7980 O.2     
   3 N3             2.1976    -0.0603     0.9671 N.am    
   4 C4             1.0819     0.8858     1.0466 C.3     
   5 C5             1.1897     1.8986    -0.0952 C.3     
   6 C6             2.5123     2.6589     0.0206 C.3     
   7 C7             1.1400     1.1629    -1.4358 C.3     
   8 C8            -3.7195     1.0058     0.3263 C.2     
   9 O9            -3.4468     2.1595     0.0707 O.2     
  10 N10           -1.3894     0.8073     0.9744 N.am    
  11 C11           -2.6557     0.0799     0.8574 C.3     
  12 C12           -3.0737    -0.4409     2.2340 C.3     
  13 C13           -2.0712    -1.4599     2.7112 C.ar    
  14 C14           -0.9758    -1.0575     3.4521 C.ar    
  15 C15           -0.0563    -1.9922     3.8898 C.ar    
  16 C16           -0.2323    -3.3294     3.5869 C.ar    
  17 C17           -1.3282    -3.7320     2.8467 C.ar    
  18 C18           -2.2501    -2.7978     2.4127 C.ar    
  19 C19           -7.3647     0.9606     0.0550 C.2     
  20 O20           -7.4584    -0.0424     0.7303 O.2     
  21 N21           -4.9740     0.5516     0.1354 N.am    
  22 C22           -6.0083     1.4516    -0.3809 C.3     
  23 C23           -5.9430     1.4801    -1.9092 C.3     
  24 C24           -4.6137     2.0950    -2.3515 C.3     
  25 C25           -4.5484     2.1234    -3.8799 C.3     
  26 N26           -3.2756     2.7122    -4.3034 N.pl3   
  27 C27           -2.9902     2.8428    -5.6420 C.2     
  28 N28           -1.8577     3.3667    -6.0188 N.2     
  29 N29           -3.8993     2.4208    -6.5830 N.pl3   
  30 C30          -10.8391     1.6504    -0.8485 C.2     
  31 O31          -10.5153     2.3324    -1.7977 O.2     
  32 N32           -8.4738     1.6360    -0.3058 N.am    
  33 C33           -9.7925     1.1587     0.1179 C.3     
  34 C34          -10.1016     1.6908     1.5187 C.3     
  35 O35          -10.2116     3.1148     1.4738 O.3     
  36 C36          -14.4873     1.8761    -0.9016 C.2     
  37 O37          -14.5798     1.5553     0.2644 O.2     
  38 N38          -12.1348     1.3322    -0.6580 N.am    
  39 C39          -13.1522     1.8102    -1.5975 C.3     
  40 C40          -13.2426     0.8487    -2.7842 C.3     
  41 O41          -13.7129    -0.4228    -2.3323 O.3     
  42 C42          -17.9803     2.2370    -1.9172 C.2     
  43 O43          -17.7097     2.1115    -3.0927 O.2     
  44 N44          -15.5784     2.2914    -1.5748 N.am    
  45 C45          -16.8763     2.3554    -0.8983 C.3     
  46 C46          -17.0025     3.6909    -0.1624 C.3     
  47 C47          -15.9597     3.7579     0.9552 C.3     
  48 C48          -16.0859     5.0934     1.6911 C.3     
  49 N49          -15.0874     5.1575     2.7612 N.pl3   
  50 C50          -15.0099     6.2715     3.5632 C.2     
  51 N51          -14.1216     6.3286     4.5153 N.2     
  52 N52          -15.8695     7.3252     3.3610 N.pl3   
  53 C53          -21.5904     2.8084    -1.9783 C.2     
  54 O54          -21.5844     3.3196    -0.8785 O.2     
  55 N55          -19.2684     2.2706    -1.5221 N.am    
  56 C56          -20.3417     2.1555    -2.5126 C.3     
  57 C57          -20.6194     0.6775    -2.7941 C.3     
  58 C58          -19.3918     0.0442    -3.4520 C.3     
  59 C59          -19.6655    -1.4116    -3.7294 C.2     
  60 O60          -20.7328    -1.8932    -3.4314 O.2     
  61 O61          -18.7234    -2.1733    -4.3074 O.3     
  62 C62          -25.1361     2.8499    -2.8666 C.2     
  63 O63          -24.9971     1.9721    -3.6917 O.2     
  64 N64          -22.7138     2.8243    -2.7228 N.am    
  65 C65          -23.9277     3.4591    -2.2034 C.3     
  66 C66          -23.8854     4.9595    -2.4998 C.3     
  67 C67          -22.7312     5.5998    -1.7261 C.3     
  68 C68          -22.6889     7.1002    -2.0224 C.3     
  69 C69          -21.5346     7.7405    -1.2487 C.3     
  70 N70          -21.4940     9.1812    -1.5332 N.3     
  71 C71          -28.6855     3.6746    -3.1584 C.2     
  72 O72          -28.5314     4.7646    -2.6495 O.2     
  73 N73          -26.3714     3.2807    -2.5427 N.am    
  74 C74          -27.5462     2.6886    -3.1873 C.3     
  75 C75          -27.9525     1.4177    -2.4385 C.3     
  76 C76          -26.8455     0.3702    -2.5737 C.3     
  77 C77          -27.2518    -0.9007    -1.8249 C.3     
  78 N78          -26.1919    -1.9037    -1.9544 N.pl3   
  79 C79          -26.3345    -3.1351    -1.3599 C.2     
  80 N80          -25.3914    -4.0275    -1.4750 N.2     
  81 N81          -27.4717    -3.4253    -0.6439 N.pl3   
  82 C82          -32.2924     3.5607    -3.7415 C.2     
  83 O83          -32.2996     2.3498    -3.8091 O.2     
  84 N84          -29.8757     3.3451    -3.6982 N.am    
  85 C85          -30.9832     4.3036    -3.6701 C.3     
  86 C86          -30.8685     5.2508    -4.8662 C.3     
  87 C87          -29.5995     6.0944    -4.7288 C.3     
  88 C88          -29.4847     7.0415    -5.9249 C.3     
  89 N89          -28.2696     7.8493    -5.7933 N.pl3   
  90 C90          -27.9539     8.7780    -6.7566 C.2     
  91 N91          -28.7356     8.9398    -7.7870 N.2     
  92 N92          -26.8136     9.5361    -6.6332 N.pl3   
  93 C93          -35.7878     4.4235    -4.3749 C.2     
  94 O94          -35.5075     5.5591    -4.6955 O.2     
  95 N95          -33.4553     4.2419    -3.7301 N.am    
  96 C96          -34.7280     3.5197    -3.7995 C.3     
  97 C97          -35.1417     3.0792    -2.3939 C.3     
  98 O98          -35.4045     4.2320    -1.5914 O.3     
  99 C99          -39.4348     4.3935    -4.6227 C.2     
 100 O100         -39.5322     3.4301    -3.8923 O.2     
 101 N101         -37.0470     3.9699    -4.5333 N.am    
 102 C102         -38.0772     4.8485    -5.0927 C.3     
 103 C103         -38.0211     4.7919    -6.6206 C.3     
 104 C104         -42.3209     3.5465    -5.6758 C.2     
 105 O105         -41.6080     3.2794    -6.6199 O.2     
 106 N106         -40.5407     5.0571    -5.0139 N.am    
 107 C107         -41.8662     4.5512    -4.6487 C.3     
 108 C108         -42.8595     5.7137    -4.5978 C.3     
 109 C109         -42.4813     6.6490    -3.4782 C.2     
 110 O110         -41.4717     6.4545    -2.8437 O.2     
 111 O111         -43.2660     7.6980    -3.1861 O.3     
 112 C112         -45.4676     1.9058    -6.5530 C.2     
 113 O113         -46.1083     2.6080    -5.7998 O.2     
 114 N114         -43.5199     2.9449    -5.5452 N.am    
 115 C115         -43.9619     1.9682    -6.5436 C.3     
 116 C116         -43.3966     0.5901    -6.1942 C.3     
 117 C117         -43.8982     0.1686    -4.8116 C.3     
 118 C118         -43.4357    -1.2593    -4.5147 C.3     
 119 C119         -41.8679     0.6534    -6.1847 C.3     
 120 C120         -48.0097    -0.3360    -7.9224 C.2     
 121 O121         -47.1846    -1.1625    -8.2495 O.2     
 122 N122         -46.1022     1.0696    -7.3984 N.am    
 123 C123         -47.5659     1.0090    -7.4075 C.3     
 124 C124         -48.1163     2.1100    -8.3162 C.3     
 125 C125         -47.7768     3.4580    -7.7345 C.ar    
 126 C126         -46.5936     4.0827    -8.0821 C.ar    
 127 C127         -46.2821     5.3193    -7.5484 C.ar    
 128 C128         -47.1540     5.9313    -6.6674 C.ar    
 129 C129         -48.3375     5.3070    -6.3205 C.ar    
 130 C130         -48.6510     4.0724    -6.8575 C.ar    
 131 C131         -49.7976    -1.9001   -10.0260 C.2     
 132 O132         -49.4982    -0.8916   -10.6203 O.2     
 133 N133         -49.3236    -0.6204    -8.0193 N.am    
 134 C134         -49.7551    -1.9278    -8.5198 C.3     
 135 C135         -51.1490    -2.2474    -7.9761 C.3     
 136 C136         -51.5479    -3.6636    -8.3959 C.3     
 137 C137         -52.8855    -4.0295    -7.7496 C.3     
 138 C138         -52.1584    -1.2451    -8.5395 C.3     
 139 O139         -50.1680    -2.9957   -10.7072 O.3     
 140 C140           3.3845     0.2489     1.5258 C.2     
 141 O141           3.5289     1.3103     2.0944 O.2     
 142 C142          21.2353    -3.5068     5.8191 C.3     
 143 C143          20.0701    -2.5188     5.9022 C.3     
 144 C144          18.8491    -3.1093     5.1941 C.3     
 145 C145          17.6839    -2.1213     5.2771 C.3     
 146 C146          16.4630    -2.7118     4.5691 C.3     
 147 C147          15.2978    -1.7238     4.6521 C.3     
 148 C148          14.0768    -2.3143     3.9441 C.3     
 149 C149          12.9116    -1.3263     4.0271 C.3     
 150 C150          11.6906    -1.9168     3.3190 C.3     
 151 C151          10.5254    -0.9288     3.4021 C.3     
 152 C152           9.3045    -1.5193     2.6940 C.3     
 153 C153           8.1393    -0.5313     2.7771 C.3     
 154 C154           6.9183    -1.1219     2.0690 C.3     
 155 C155           5.7531    -0.1338     2.1521 C.3     
 156 C156           4.5322    -0.7244     1.4440 C.3     
 157 H157           2.0821    -0.9093     0.5123 H       
 158 H158           1.1173     1.4099     2.0017 H       
 159 H159           0.3596     2.6025    -0.0360 H       
 160 H160           3.3424     1.9549    -0.0385 H       
 161 H161           2.5891     3.3804    -0.7928 H       
 162 H162           2.5477     3.1829     0.9757 H       
 163 H163           0.1977     0.6213    -1.5183 H       
 164 H164           1.2167     1.8844    -2.2492 H       
 165 H165           1.9701     0.4590    -1.4950 H       
 166 H166          -1.3919     1.7713     1.0819 H       
 167 H167          -2.5306    -0.7598     0.1739 H       
 168 H168          -3.1126     0.3887     2.9399 H       
 169 H169          -4.0577    -0.9045     2.1636 H       
 170 H170          -0.8382    -0.0128     3.6888 H       
 171 H171           0.7999    -1.6777     4.4681 H       
 172 H172           0.4865    -4.0596     3.9282 H       
 173 H173          -1.4656    -4.7767     2.6098 H       
 174 H174          -3.1082    -3.1127     1.8376 H       
 175 H175          -5.1922    -0.3712     0.3399 H       
 176 H176          -5.8431     2.4562     0.0086 H       
 177 H177          -6.0193     0.4635    -2.2951 H       
 178 H178          -6.7672     2.0788    -2.2970 H       
 179 H179          -4.5373     3.1115    -1.9656 H       
 180 H180          -3.7895     1.4963    -1.9637 H       
 181 H181          -4.6247     1.1069    -4.2658 H       
 182 H182          -5.3726     2.7221    -4.2677 H       
 183 H183          -2.6341     3.0100    -3.6395 H       
 184 H184          -1.6563     3.4588    -6.9632 H       
 185 H185          -4.7420     2.0309    -6.3026 H       
 186 H186          -3.6979     2.5129    -7.5274 H       
 187 H187          -8.3989     2.4382    -0.8459 H       
 188 H188          -9.7964     0.0688     0.1341 H       
 189 H189         -11.0414     1.2647     1.8699 H       
 190 H190          -9.2983     1.4097     2.1996 H       
 191 H191         -10.4072     3.5214     2.3291 H       
 192 H192         -12.3937     0.7867     0.1011 H       
 193 H193         -12.8792     2.8032    -1.9545 H       
 194 H194         -13.9344     1.2496    -3.5249 H       
 195 H195         -12.2563     0.7325    -3.2336 H       
 196 H196         -13.7948    -1.0837    -3.0334 H       
 197 H197         -15.5044     2.5479    -2.5074 H       
 198 H198         -16.9534     1.5373    -0.1822 H       
 199 H199         -16.8369     4.5090    -0.8634 H       
 200 H200         -18.0008     3.7764     0.2666 H       
 201 H201         -16.1252     2.9397     1.6561 H       
 202 H202         -14.9613     3.6724     0.5262 H       
 203 H203         -15.9203     5.9115     0.9901 H       
 204 H204         -17.0842     5.1789     2.1201 H       
 205 H205         -14.4809     4.4141     2.9038 H       
 206 H206         -14.0669     7.1145     5.0811 H       
 207 H207         -16.5306     7.2827     2.6524 H       
 208 H208         -15.8149     8.1112     3.9268 H       
 209 H209         -19.4848     2.3710    -0.5819 H       
 210 H210         -20.0391     2.6505    -3.4353 H       
 211 H211         -20.8355     0.1635    -1.8575 H       
 212 H212         -21.4759     0.5897    -3.4627 H       
 213 H213         -19.1758     0.5581    -4.3887 H       
 214 H214         -18.5354     0.1320    -2.7835 H       
 215 H215         -18.9451    -3.1012    -4.4654 H       
 216 H216         -22.7186     2.4155    -3.6024 H       
 217 H217         -23.9870     3.3030    -1.1263 H       
 218 H218         -23.7369     5.1148    -3.5684 H       
 219 H219         -24.8262     5.4170    -2.1934 H       
 220 H220         -22.8797     5.4445    -0.6575 H       
 221 H221         -21.7904     5.1423    -2.0324 H       
 222 H222         -22.5403     7.2555    -3.0910 H       
 223 H223         -23.6296     7.5577    -1.7160 H       
 224 H224         -21.6832     7.5853    -0.1801 H       
 225 H225         -20.5939     7.2830    -1.5550 H       
 226 H226         -20.7395     9.6273    -1.0335 H       
 227 H227         -21.4217     9.3520    -2.5250 H       
 228 H228         -26.4827     3.9829    -1.8827 H       
 229 H229         -27.3067     2.4403    -4.2213 H       
 230 H230         -28.1060     1.6502    -1.3847 H       
 231 H231         -28.8771     1.0260    -2.8626 H       
 232 H232         -26.6920     0.1377    -3.6275 H       
 233 H233         -25.9209     0.7619    -2.1496 H       
 234 H234         -27.4053    -0.6682    -0.7711 H       
 235 H235         -28.1764    -1.2924    -2.2490 H       
 236 H236         -25.3895    -1.6990    -2.4595 H       
 237 H237         -25.4920    -4.8963    -1.0556 H       
 238 H238         -28.1735    -2.7612    -0.5582 H       
 239 H239         -27.5723    -4.2941    -0.2245 H       
 240 H240         -29.9989     2.4733    -4.1053 H       
 241 H241         -30.9421     4.8794    -2.7455 H       
 242 H242         -30.8202     4.6692    -5.7869 H       
 243 H243         -31.7390     5.9060    -4.8956 H       
 244 H244         -29.6477     6.6759    -3.8082 H       
 245 H245         -28.7290     5.4391    -4.6994 H       
 246 H246         -29.4365     6.4600    -6.8455 H       
 247 H247         -30.3552     7.6968    -5.9543 H       
 248 H248         -27.6879     7.7289    -5.0265 H       
 249 H249         -28.5129     9.5950    -8.4667 H       
 250 H250         -26.2319     9.4157    -5.8664 H       
 251 H251         -26.5909    10.1913    -7.3128 H       
 252 H252         -33.4496     5.2104    -3.6760 H       
 253 H253         -34.6138     2.6425    -4.4363 H       
 254 H254         -36.0411     2.4665    -2.4551 H       
 255 H255         -34.3366     2.4987    -1.9433 H       
 256 H256         -35.6727     4.0276    -0.6851 H       
 257 H257         -37.2711     3.0616    -4.2768 H       
 258 H258         -37.9017     5.8716    -4.7603 H       
 259 H259         -37.0391     5.1210    -6.9605 H       
 260 H260         -38.1965     3.7687    -6.9529 H       
 261 H261         -38.7876     5.4456    -7.0368 H       
 262 H262         -40.4590     5.8696    -5.5373 H       
 263 H263         -41.8158     4.0732    -3.6704 H       
 264 H264         -42.8368     6.2528    -5.5449 H       
 265 H265         -43.8635     5.3264    -4.4241 H       
 266 H266         -42.9822     8.2698    -2.4597 H       
 267 H267         -44.0900     3.1585    -4.7901 H       
 268 H268         -43.6046     2.2684    -7.5286 H       
 269 H269         -43.7255    -0.1366    -6.9371 H       
 270 H270         -43.4959     0.8450    -4.0574 H       
 271 H271         -44.9872     0.2093    -4.7922 H       
 272 H272         -43.7931    -1.5595    -3.5297 H       
 273 H273         -43.8380    -1.9357    -5.2689 H       
 274 H274         -42.3467    -1.2999    -4.5341 H       
 275 H275         -41.4651    -0.3284    -5.9358 H       
 276 H276         -41.5106     0.9537    -7.1697 H       
 277 H277         -41.5390     1.3801    -5.4418 H       
 278 H278         -45.5897     0.5080    -8.0008 H       
 279 H279         -47.9418     1.1523    -6.3944 H       
 280 H280         -47.6714     2.0194    -9.3072 H       
 281 H281         -49.1989     2.0098    -8.3935 H       
 282 H282         -45.9125     3.6045    -8.7704 H       
 283 H283         -45.3575     5.8070    -7.8195 H       
 284 H284         -46.9103     6.8971    -6.2499 H       
 285 H285         -49.0186     5.7850    -5.6319 H       
 286 H286         -49.5774     3.5864    -6.5893 H       
 287 H287         -49.9835     0.0407    -7.7577 H       
 288 H288         -49.0523    -2.6930    -8.1902 H       
 289 H289         -51.1389    -2.1803    -6.8882 H       
 290 H290         -51.6445    -3.7073    -9.4808 H       
 291 H291         -50.7824    -4.3682    -8.0707 H       
 292 H292         -53.1697    -5.0384    -8.0487 H       
 293 H293         -52.7889    -3.9857    -6.6648 H       
 294 H294         -53.6510    -3.3249    -8.0749 H       
 295 H295         -53.1514    -1.4728    -8.1522 H       
 296 H296         -51.8742    -0.2362    -8.2404 H       
 297 H297         -52.1685    -1.3123    -9.6274 H       
 298 H298         -50.1800    -2.9297   -11.6719 H       
 299 H299          22.1051    -3.0861     6.3235 H       
 300 H300          20.9531    -4.4428     6.3013 H       
 301 H301          21.4778    -3.6956     4.7733 H       
 302 H302          19.8276    -2.3300     6.9479 H       
 303 H303          20.3523    -1.5828     5.4200 H       
 304 H304          19.0916    -3.2981     4.1483 H       
 305 H305          18.5669    -4.0453     5.6763 H       
 306 H306          17.4414    -1.9325     6.3229 H       
 307 H307          17.9661    -1.1853     4.7950 H       
 308 H308          16.7054    -2.9006     3.5233 H       
 309 H309          16.1807    -3.6478     5.0513 H       
 310 H310          15.0553    -1.5350     5.6979 H       
 311 H311          15.5800    -0.7878     4.1699 H       
 312 H312          14.3193    -2.5031     2.8983 H       
 313 H313          13.7946    -3.2503     4.4262 H       
 314 H314          12.6691    -1.1375     5.0729 H       
 315 H315          13.1938    -0.3903     3.5449 H       
 316 H316          11.9331    -2.1056     2.2733 H       
 317 H317          11.4084    -2.8528     3.8012 H       
 318 H318          10.2830    -0.7400     4.4479 H       
 319 H319          10.8076     0.0072     2.9199 H       
 320 H320           9.5470    -1.7081     1.6482 H       
 321 H321           9.0223    -2.4553     3.1762 H       
 322 H322           7.8968    -0.3425     3.8229 H       
 323 H323           8.4215     0.4047     2.2949 H       
 324 H324           7.1608    -1.3106     1.0232 H       
 325 H325           6.6361    -2.0578     2.5512 H       
 326 H326           5.5106     0.0550     3.1979 H       
 327 H327           6.0353     0.8022     1.6699 H       
 328 H328           4.2499    -1.6603     1.9262 H       
 329 H329           4.7746    -0.9131     0.3982 H       
@<TRIPOS>BOND
   1    1    2 2
   2    1    4 1
   3    1   10 am
   4    3  140 am
   5    3    4 1
   6    3  157 1
   7    4    5 1
   8    4  158 1
   9    5    6 1
  10    5    7 1
  11    5  159 1
  12    6  160 1
  13    6  161 1
  14    6  162 1
  15    7  163 1
  16    7  164 1
  17    7  165 1
  18    8    9 2
  19    8   11 1
  20    8   21 am
  21   10   11 1
  22   10  166 1
  23   11   12 1
  24   11  167 1
  25   12   13 1
  26   12  168 1
  27   12  169 1
  28   13   14 ar
  29   13   18 ar
  30   14   15 ar
  31   14  170 1
  32   15   16 ar
  33   15  171 1
  34   16   17 ar
  35   16  172 1
  36   17   18 ar
  37   17  173 1
  38   18  174 1
  39   19   20 2
  40   19   22 1
  41   19   32 am
  42   21   22 1
  43   21  175 1
  44   22   23 1
  45   22  176 1
  46   23   24 1
  47   23  177 1
  48   23  178 1
  49   24   25 1
  50   24  179 1
  51   24  180 1
  52   25   26 1
  53   25  181 1
  54   25  182 1
  55   26   27 1
  56   26  183 1
  57   27   28 2
  58   27   29 1
  59   28  184 1
  60   29  185 1
  61   29  186 1
  62   30   31 2
  63   30   33 1
  64   30   38 am
  65   32   33 1
  66   32  187 1
  67   33   34 1
  68   33  188 1
  69   34   35 1
  70   34  189 1
  71   34  190 1
  72   35  191 1
  73   36   37 2
  74   36   39 1
  75   36   44 am
  76   38   39 1
  77   38  192 1
  78   39   40 1
  79   39  193 1
  80   40   41 1
  81   40  194 1
  82   40  195 1
  83   41  196 1
  84   42   43 2
  85   42   45 1
  86   42   55 am
  87   44   45 1
  88   44  197 1
  89   45   46 1
  90   45  198 1
  91   46   47 1
  92   46  199 1
  93   46  200 1
  94   47   48 1
  95   47  201 1
  96   47  202 1
  97   48   49 1
  98   48  203 1
  99   48  204 1
 100   49   50 1
 101   49  205 1
 102   50   51 2
 103   50   52 1
 104   51  206 1
 105   52  207 1
 106   52  208 1
 107   53   54 2
 108   53   56 1
 109   53   64 am
 110   55   56 1
 111   55  209 1
 112   56   57 1
 113   56  210 1
 114   57   58 1
 115   57  211 1
 116   57  212 1
 117   58   59 1
 118   58  213 1
 119   58  214 1
 120   59   60 2
 121   59   61 1
 122   61  215 1
 123   62   63 2
 124   62   65 1
 125   62   73 am
 126   64   65 1
 127   64  216 1
 128   65   66 1
 129   65  217 1
 130   66   67 1
 131   66  218 1
 132   66  219 1
 133   67   68 1
 134   67  220 1
 135   67  221 1
 136   68   69 1
 137   68  222 1
 138   68  223 1
 139   69   70 1
 140   69  224 1
 141   69  225 1
 142   70  226 1
 143   70  227 1
 144   71   72 2
 145   71   74 1
 146   71   84 am
 147   73   74 1
 148   73  228 1
 149   74   75 1
 150   74  229 1
 151   75   76 1
 152   75  230 1
 153   75  231 1
 154   76   77 1
 155   76  232 1
 156   76  233 1
 157   77   78 1
 158   77  234 1
 159   77  235 1
 160   78   79 1
 161   78  236 1
 162   79   80 2
 163   79   81 1
 164   80  237 1
 165   81  238 1
 166   81  239 1
 167   82   83 2
 168   82   85 1
 169   82   95 am
 170   84   85 1
 171   84  240 1
 172   85   86 1
 173   85  241 1
 174   86   87 1
 175   86  242 1
 176   86  243 1
 177   87   88 1
 178   87  244 1
 179   87  245 1
 180   88   89 1
 181   88  246 1
 182   88  247 1
 183   89   90 1
 184   89  248 1
 185   90   91 2
 186   90   92 1
 187   91  249 1
 188   92  250 1
 189   92  251 1
 190   93   94 2
 191   93   96 1
 192   93  101 am
 193   95   96 1
 194   95  252 1
 195   96   97 1
 196   96  253 1
 197   97   98 1
 198   97  254 1
 199   97  255 1
 200   98  256 1
 201   99  100 2
 202   99  102 1
 203   99  106 am
 204  101  102 1
 205  101  257 1
 206  102  103 1
 207  102  258 1
 208  103  259 1
 209  103  260 1
 210  103  261 1
 211  104  105 2
 212  104  107 1
 213  104  114 am
 214  106  107 1
 215  106  262 1
 216  107  108 1
 217  107  263 1
 218  108  109 1
 219  108  264 1
 220  108  265 1
 221  109  110 2
 222  109  111 1
 223  111  266 1
 224  112  113 2
 225  112  115 1
 226  112  122 am
 227  114  115 1
 228  114  267 1
 229  115  116 1
 230  115  268 1
 231  116  117 1
 232  116  119 1
 233  116  269 1
 234  117  118 1
 235  117  270 1
 236  117  271 1
 237  118  272 1
 238  118  273 1
 239  118  274 1
 240  119  275 1
 241  119  276 1
 242  119  277 1
 243  120  121 2
 244  120  123 1
 245  120  133 am
 246  122  123 1
 247  122  278 1
 248  123  124 1
 249  123  279 1
 250  124  125 1
 251  124  280 1
 252  124  281 1
 253  125  126 ar
 254  125  130 ar
 255  126  127 ar
 256  126  282 1
 257  127  128 ar
 258  127  283 1
 259  128  129 ar
 260  128  284 1
 261  129  130 ar
 262  129  285 1
 263  130  286 1
 264  131  132 2
 265  131  134 1
 266  131  139 1
 267  133  134 1
 268  133  287 1
 269  134  135 1
 270  134  288 1
 271  135  136 1
 272  135  138 1
 273  135  289 1
 274  136  137 1
 275  136  290 1
 276  136  291 1
 277  137  292 1
 278  137  293 1
 279  137  294 1
 280  138  295 1
 281  138  296 1
 282  138  297 1
 283  139  298 1
 284  140  141 2
 285  140  156 1
 286  142  143 1
 287  142  299 1
 288  142  300 1
 289  142  301 1
 290  143  144 1
 291  143  302 1
 292  143  303 1
 293  144  145 1
 294  144  304 1
 295  144  305 1
 296  145  146 1
 297  145  306 1
 298  145  307 1
 299  146  147 1
 300  146  308 1
 301  146  309 1
 302  147  148 1
 303  147  310 1
 304  147  311 1
 305  148  149 1
 306  148  312 1
 307  148  313 1
 308  149  150 1
 309  149  314 1
 310  149  315 1
 311  150  151 1
 312  150  316 1
 313  150  317 1
 314  151  152 1
 315  151  318 1
 316  151  319 1
 317  152  153 1
 318  152  320 1
 319  152  321 1
 320  153  154 1
 321  153  322 1
 322  153  323 1
 323  154  155 1
 324  154  324 1
 325  154  325 1
 326  155  156 1
 327  155  326 1
 328  155  327 1
 329  156  328 1
 330  156  329 1

#	End of record

