#	Name: ASD01890303
#	Creating user name:	WinNT
#	Creation time:	15. 06. 2019 19:50

#	Modifying user name:	WinNT
#	Modification time:	15. 06. 2019 19:50

#	Program:	/corina/corina34_cracker 3.40 0067  02.08.2006

@<TRIPOS>MOLECULE
ASD01890303
  34   36    0    0    0
SMALL
NO_CHARGES


@<TRIPOS>ATOM
   1 C1            -0.0184     1.5028     0.0103 C.2     
   2 C2             0.0021    -0.0041     0.0020 C.3     
   3 C3             1.4513    -0.4944    -0.0145 C.3     
   4 O4             1.0234     2.1233     0.0037 O.2     
   5 C5            -1.3027     2.2212     0.0203 C.ar    
   6 C6            -1.3259     3.6195     0.0280 C.ar    
   7 C7            -2.5333     4.2853     0.0374 C.ar    
   8 C8            -3.7202     3.5735     0.0397 C.ar    
   9 C9            -3.7057     2.1896     0.0321 C.ar    
  10 C10           -2.5064     1.5092     0.0164 C.ar    
  11 N11            1.5666    -4.1138     0.6513 N.pl3   
  12 C12            1.5864    -2.8041     1.0469 C.2     
  13 C13            1.4717    -2.0012    -0.0227 C.2     
  14 C14            1.3702    -2.8676    -1.1996 C.ar    
  15 C15            1.2346    -2.6323    -2.5692 C.ar    
  16 C16            1.1658    -3.6869    -3.4351 C.ar    
  17 C17            1.2297    -4.9913    -2.9641 C.ar    
  18 C18            1.3630    -5.2462    -1.6170 C.ar    
  19 C19            1.4354    -4.1874    -0.7174 C.ar    
  20 H20           -0.4983    -0.3791     0.8948 H       
  21 H21           -0.5153    -0.3696    -0.8850 H       
  22 H22            1.9516    -0.1193    -0.9073 H       
  23 H23            1.9686    -0.1289     0.8726 H       
  24 H24           -0.4005     4.1764     0.0270 H       
  25 H25           -2.5529     5.3652     0.0434 H       
  26 H26           -4.6628     4.1007     0.0478 H       
  27 H27           -4.6360     1.6411     0.0339 H       
  28 H28           -2.4967     0.4293     0.0055 H       
  29 H29            1.6385    -4.8768     1.2460 H       
  30 H30            1.6800    -2.4664     2.0685 H       
  31 H31            1.1839    -1.6202    -2.9428 H       
  32 H32            1.0605    -3.5043    -4.4943 H       
  33 H33            1.1740    -5.8146    -3.6610 H       
  34 H34            1.4114    -6.2645    -1.2604 H       
@<TRIPOS>BOND
   1    1    2 1
   2    1    4 2
   3    1    5 1
   4    2    3 1
   5    2   20 1
   6    2   21 1
   7    3   13 1
   8    3   22 1
   9    3   23 1
  10    5    6 ar
  11    5   10 ar
  12    6    7 ar
  13    6   24 1
  14    7    8 ar
  15    7   25 1
  16    8    9 ar
  17    8   26 1
  18    9   10 ar
  19    9   27 1
  20   10   28 1
  21   11   12 1
  22   11   19 1
  23   11   29 1
  24   12   13 2
  25   12   30 1
  26   13   14 1
  27   14   15 ar
  28   14   19 ar
  29   15   16 ar
  30   15   31 1
  31   16   17 ar
  32   16   32 1
  33   17   18 ar
  34   17   33 1
  35   18   19 ar
  36   18   34 1

#	End of record

