#	Name: ASD02500895
#	Creating user name:	WinNT
#	Creation time:	15. 06. 2019 20:23

#	Modifying user name:	WinNT
#	Modification time:	15. 06. 2019 20:23

#	Program:	/corina/corina34_cracker 3.40 0067  02.08.2006

@<TRIPOS>MOLECULE
ASD02500895
  25   25    0    0    0
SMALL
NO_CHARGES


@<TRIPOS>ATOM
   1 C1            -0.2196     1.6916     0.3467 C.2     
   2 C2            -0.3294     0.3315     0.4314 C.2     
   3 C3             1.0547     2.1557     0.2058 C.2     
   4 S4             2.1791     0.8041     0.1783 S.3     
   5 C5             0.8592    -0.3433     0.3609 C.2     
   6 S6             1.5065     3.8534     0.0707 S.3     
   7 C7             3.3089     3.7060     0.1453 C.3     
   8 C8             1.0039    -1.7484     0.4260 C.2     
   9 O9             2.2312    -2.3050     0.3460 O.3     
  10 O10            0.0218    -2.4561     0.5542 O.2     
  11 C11            3.8049     2.8996    -1.0567 C.3     
  12 C12            3.9364     5.1011     0.1174 C.3     
  13 C13            3.7091     2.9925     1.4382 C.3     
  14 H14           -1.0767     2.3477     0.3839 H       
  15 H15           -1.2788    -0.1706     0.5454 H       
  16 H16            2.2295    -3.2705     0.3998 H       
  17 H17            3.3951     3.3243    -1.9731 H       
  18 H18            4.8936     2.9361    -1.0944 H       
  19 H19            3.4792     1.8640    -0.9588 H       
  20 H20            3.5830     5.6756     0.9738 H       
  21 H21            5.0218     5.0123     0.1624 H       
  22 H22            3.6512     5.6094    -0.8037 H       
  23 H23            3.3779     1.9548     1.3981 H       
  24 H24            4.7929     3.0239     1.5500 H       
  25 H25            3.2417     3.4905     2.2877 H       
@<TRIPOS>BOND
   1    1    2 1
   2    1    3 2
   3    1   14 1
   4    2    5 2
   5    2   15 1
   6    3    4 1
   7    3    6 1
   8    4    5 1
   9    5    8 1
  10    6    7 1
  11    7   11 1
  12    7   12 1
  13    7   13 1
  14    8    9 1
  15    8   10 2
  16    9   16 1
  17   11   17 1
  18   11   18 1
  19   11   19 1
  20   12   20 1
  21   12   21 1
  22   12   22 1
  23   13   23 1
  24   13   24 1
  25   13   25 1

#	End of record

