#	Name: ASD01410271
#	Creating user name:	WinNT
#	Creation time:	15. 06. 2019 19:17

#	Modifying user name:	WinNT
#	Modification time:	15. 06. 2019 19:17

#	Program:	/corina/corina34_cracker 3.40 0067  02.08.2006

@<TRIPOS>MOLECULE
ASD01410271
  33   35    0    0    0
SMALL
NO_CHARGES


@<TRIPOS>ATOM
   1 C1             0.1894     1.1733    -0.6930 C.ar    
   2 C2             0.2786    -0.2163    -0.6184 C.ar    
   3 C3             1.4887    -0.8320    -0.3242 C.ar    
   4 C4             2.6222    -0.0576    -0.1018 C.ar    
   5 C5             2.5207     1.3469    -0.1797 C.ar    
   6 C6             1.2909     1.9487    -0.4777 C.ar    
   7 O7             3.8027    -0.6441     0.1851 O.3     
   8 C8             4.9283     0.0674     0.4087 C.2     
   9 C9             4.9216     1.4837     0.3515 C.2     
  10 C10            3.7178     2.1602     0.0556 C.2     
  11 C11            6.1086    -0.5906     0.6989 C.2     
  12 C12            7.2806     0.1464     0.9324 C.2     
  13 C13            7.2595     1.5563     0.8725 C.2     
  14 C14            6.1062     2.2106     0.5889 C.2     
  15 C15            3.6669     3.6258    -0.0142 C.2     
  16 O16            8.3266    -0.4373     1.1896 O.2     
  17 O17            6.1346    -1.9509     0.7587 O.3     
  18 O18            1.5645    -2.1890    -0.2535 O.3     
  19 O19           -0.8268    -0.9741    -0.8347 O.3     
  20 C20            4.4963     4.2909    -0.8449 C.2     
  21 C21            4.4427     5.7594    -0.9175 C.2     
  22 O22            3.6515     6.3732    -0.2294 O.2     
  23 O23            5.2715     6.4239    -1.7476 O.3     
  24 H24           -0.7567     1.6384    -0.9270 H       
  25 H25            1.2154     3.0244    -0.5372 H       
  26 H26            8.1651     2.1161     1.0540 H       
  27 H27            6.0952     3.2896     0.5438 H       
  28 H28            2.9655     4.1716     0.5994 H       
  29 H29            7.0040    -2.3189     0.9679 H       
  30 H30            1.7785    -2.6153    -1.0946 H       
  31 H31           -0.9552    -1.2275    -1.7591 H       
  32 H32            5.1996     3.7453    -1.4566 H       
  33 H33            5.1993     7.3882    -1.7607 H       
@<TRIPOS>BOND
   1    1    2 ar
   2    1    6 ar
   3    1   24 1
   4    2    3 ar
   5    2   19 1
   6    3    4 ar
   7    3   18 1
   8    4    5 ar
   9    4    7 1
  10    5    6 ar
  11    5   10 1
  12    6   25 1
  13    7    8 1
  14    8    9 1
  15    8   11 2
  16    9   10 2
  17    9   14 1
  18   10   15 1
  19   11   12 1
  20   11   17 1
  21   12   13 1
  22   12   16 2
  23   13   14 2
  24   13   26 1
  25   14   27 1
  26   15   20 2
  27   15   28 1
  28   17   29 1
  29   18   30 1
  30   19   31 1
  31   20   21 1
  32   20   32 1
  33   21   22 2
  34   21   23 1
  35   23   33 1

#	End of record

