#	Name: ASD01901494
#	Creating user name:	WinNT
#	Creation time:	15. 06. 2019 19:53

#	Modifying user name:	WinNT
#	Modification time:	15. 06. 2019 19:53

#	Program:	/corina/corina34_cracker 3.40 0067  02.08.2006

@<TRIPOS>MOLECULE
ASD01901494
  39   42    0    0    0
SMALL
NO_CHARGES


@<TRIPOS>ATOM
   1 C1            -0.0168     1.3897     0.0097 C.ar    
   2 C2             1.1698     2.0934     0.0021 C.ar    
   3 C3             2.3782     1.4174    -0.0130 C.ar    
   4 C4             2.4023     0.0334    -0.0207 C.ar    
   5 C5             1.2208    -0.6797    -0.0137 C.ar    
   6 C6             0.0021    -0.0041     0.0020 C.ar    
   7 C7            -1.2709    -0.7656     0.0106 C.2     
   8 N8            -2.3682    -2.8626     0.0162 N.2     
   9 C9            -1.2527    -2.1772     0.0087 C.2     
  10 N10           -2.4244    -0.1272     0.0255 N.2     
  11 N11           -3.6110    -0.8703     0.0337 N.pl3   
  12 C12           -3.5554    -2.2435     0.0263 C.2     
  13 C13           -4.9282    -0.5203     0.0493 C.2     
  14 C14           -5.6457    -1.6674     0.0510 C.2     
  15 N15           -4.7999    -2.6998     0.0356 N.2     
  16 C16           -7.1496    -1.7633     0.0663 C.3     
  17 O17           -7.7106    -0.4492     0.0787 O.3     
  18 C18           -9.0642    -0.3574     0.0933 C.ar    
  19 C19           -9.6687     0.8928     0.1059 C.ar    
  20 N20           -9.7956    -1.4596     0.0900 N.ar    
  21 C21          -11.1141    -1.4156     0.1038 C.ar    
  22 C22          -11.7817    -0.2069     0.1224 C.ar    
  23 C23          -11.0505     0.9727     0.1208 C.ar    
  24 C24           -1.3312     2.1266     0.0325 C.3     
  25 Cl25           3.8679     2.3086    -0.0231 Cl      
  26 F26           -1.0929     3.5052     0.0363 F       
  27 F27           -2.0768     1.7854    -1.1011 F       
  28 F28           -2.0440     1.7733     1.1832 F       
  29 H29            1.1562     3.1733     0.0077 H       
  30 H30            3.3473    -0.4893    -0.0325 H       
  31 H31            1.2406    -1.7595    -0.0201 H       
  32 H32           -0.3067    -2.6982     0.0007 H       
  33 H33           -5.3247     0.4842     0.0584 H       
  34 H34           -7.4888    -2.2948    -0.8229 H       
  35 H35           -7.4701    -2.3037     0.9570 H       
  36 H36           -9.0687     1.7908     0.1045 H       
  37 H37          -11.6784    -2.3364     0.1002 H       
  38 H38          -12.8613    -0.1799     0.1336 H       
  39 H39          -11.5483     1.9311     0.1312 H       
@<TRIPOS>BOND
   1    1    6 ar
   2    1    2 ar
   3    1   24 1
   4    2    3 ar
   5    2   29 1
   6    3    4 ar
   7    3   25 1
   8    4    5 ar
   9    4   30 1
  10    5    6 ar
  11    5   31 1
  12    6    7 1
  13    7   10 2
  14    7    9 1
  15    8    9 2
  16    8   12 1
  17    9   32 1
  18   10   11 1
  19   11   13 1
  20   11   12 1
  21   12   15 2
  22   13   14 2
  23   13   33 1
  24   14   15 1
  25   14   16 1
  26   16   17 1
  27   16   34 1
  28   16   35 1
  29   17   18 1
  30   18   19 ar
  31   18   20 ar
  32   19   23 ar
  33   19   36 1
  34   20   21 ar
  35   21   22 ar
  36   21   37 1
  37   22   23 ar
  38   22   38 1
  39   23   39 1
  40   24   26 1
  41   24   27 1
  42   24   28 1

#	End of record

