#	Name: ASD05430036
#	Creating user name:	WinNT
#	Creation time:	15. 06. 2019 20:59

#	Modifying user name:	WinNT
#	Modification time:	15. 06. 2019 20:59

#	Program:	/corina/corina34_cracker 3.40 0067  02.08.2006

@<TRIPOS>MOLECULE
ASD05430036
  63   69    0    0    0
SMALL
NO_CHARGES


@<TRIPOS>ATOM
   1 C1             0.0681     1.1490     0.4318 C.ar    
   2 C2             0.0185    -0.0079    -0.3426 C.ar    
   3 C3             1.1555    -0.4511    -1.0006 C.ar    
   4 C4             2.3398     0.2540    -0.8894 C.ar    
   5 C5             2.4135     1.4101    -0.1231 C.ar    
   6 C6             1.2566     1.8879     0.5642 C.ar    
   7 C7             4.8606    -0.0415     0.2065 C.3     
   8 C8             4.8452     1.4644     0.0691 C.2     
   9 C9             3.6821     2.1413    -0.0192 C.2     
  10 C10            6.1905    -0.5015     0.7942 C.3     
  11 C11            6.8696     0.5219     1.7022 C.3     
  12 N12            7.1093     1.7471     0.9394 N.pl3   
  13 C13            6.1368     2.1702     0.0352 C.2     
  14 N14           -1.1793    -0.7233    -0.4560 N.pl3   
  15 C15           -1.9792    -1.1263     0.5656 C.2     
  16 C16           -1.7701    -1.1446    -1.6194 C.2     
  17 C17           -2.8992    -1.7908    -1.2716 C.2     
  18 N18           -3.0020    -1.7646     0.0655 N.2     
  19 C19           -3.8800    -2.4295    -2.2210 C.3     
  20 N20           -0.0676     3.2427     1.9013 N.2     
  21 S21           -1.1294     2.0216     1.3936 S.3     
  22 C22            8.3232     2.5453     1.1049 C.3     
  23 C23            8.7295     3.0948    -0.2669 C.3     
  24 O24            7.6302     3.7724    -0.8668 O.3     
  25 N25            6.3794     3.1270    -0.8009 N.2     
  26 C26            8.0547     3.6877     2.0504 C.ar    
  27 C27            9.0089     4.0519     2.9821 C.ar    
  28 C28            8.7640     5.0997     3.8493 C.ar    
  29 C29            7.5624     5.7846     3.7848 C.ar    
  30 C30            6.6075     5.4189     2.8513 C.ar    
  31 C31            6.8568     4.3742     1.9816 C.ar    
  32 F32            7.3218     6.8088     4.6324 F       
  33 C33            1.0913     3.0130     1.3840 C.2     
  34 C34            6.1313    -1.9104     1.4068 C.3     
  35 O35            7.3916    -2.1279     0.7400 O.3     
  36 C36            7.1408    -1.1096    -0.2502 C.3     
  37 C37            9.8958     4.0705    -0.0976 C.3     
  38 H38            1.1163    -1.3483    -1.6005 H       
  39 H39            3.2202    -0.0995    -1.4055 H       
  40 H40            4.0483    -0.3527     0.8633 H       
  41 H41            4.7230    -0.4952    -0.7750 H       
  42 H42            3.6841     3.2212    -0.0136 H       
  43 H43            6.2233     0.7416     2.5520 H       
  44 H44            7.8191     0.1215     2.0575 H       
  45 H45           -1.7990    -0.9484     1.6155 H       
  46 H46           -1.4011    -0.9877    -2.6222 H       
  47 H47           -3.5940    -3.4668    -2.3953 H       
  48 H48           -4.8795    -2.3960    -1.7876 H       
  49 H49           -3.8757    -1.8876    -3.1667 H       
  50 H50            9.1228     1.9197     1.5015 H       
  51 H51            9.0402     2.2707    -0.9090 H       
  52 H52            9.9459     3.5173     3.0324 H       
  53 H53            9.5094     5.3838     4.5773 H       
  54 H54            5.6699     5.9525     2.8001 H       
  55 H55            6.1121     4.0888     1.2533 H       
  56 H56            1.9206     3.6770     1.5784 H       
  57 H57            6.1999    -1.9218     2.4946 H       
  58 H58            5.3170    -2.5247     1.0226 H       
  59 H59            6.6369    -1.4777    -1.1439 H       
  60 H60            8.0078    -0.4877    -0.4729 H       
  61 H61           10.7420     3.5507     0.3517 H       
  62 H62           10.1861     4.4624    -1.0724 H       
  63 H63            9.5902     4.8935     0.5485 H       
@<TRIPOS>BOND
   1    1    2 ar
   2    1    6 ar
   3    1   21 1
   4    2    3 ar
   5    2   14 1
   6    3    4 ar
   7    3   38 1
   8    4    5 ar
   9    4   39 1
  10    5    6 ar
  11    5    9 1
  12    6   33 1
  13    7    8 1
  14    7   10 1
  15    7   40 1
  16    7   41 1
  17    8    9 2
  18    8   13 1
  19    9   42 1
  20   10   11 1
  21   10   34 1
  22   10   36 1
  23   11   12 1
  24   11   43 1
  25   11   44 1
  26   12   13 1
  27   12   22 1
  28   13   25 2
  29   14   15 1
  30   14   16 1
  31   15   18 2
  32   15   45 1
  33   16   17 2
  34   16   46 1
  35   17   18 1
  36   17   19 1
  37   19   47 1
  38   19   48 1
  39   19   49 1
  40   20   21 1
  41   20   33 2
  42   22   23 1
  43   22   26 1
  44   22   50 1
  45   23   24 1
  46   23   37 1
  47   23   51 1
  48   24   25 1
  49   26   27 ar
  50   26   31 ar
  51   27   28 ar
  52   27   52 1
  53   28   29 ar
  54   28   53 1
  55   29   30 ar
  56   29   32 1
  57   30   31 ar
  58   30   54 1
  59   31   55 1
  60   33   56 1
  61   34   35 1
  62   34   57 1
  63   34   58 1
  64   35   36 1
  65   36   59 1
  66   36   60 1
  67   37   61 1
  68   37   62 1
  69   37   63 1

#	End of record

