#	Name: ASD01882987
#	Creating user name:	WinNT
#	Creation time:	15. 06. 2019 19:45

#	Modifying user name:	WinNT
#	Modification time:	15. 06. 2019 19:45

#	Program:	/corina/corina34_cracker 3.40 0067  02.08.2006

@<TRIPOS>MOLECULE
ASD01882987
  38   40    0    0    0
SMALL
NO_CHARGES


@<TRIPOS>ATOM
   1 N1            -0.0178     1.4608     0.0101 N.pl3   
   2 C2             0.0021    -0.0041     0.0020 C.3     
   3 O3            -1.8743    -1.2853    -1.1196 O.3     
   4 C4            -1.4333    -0.5336     0.0129 C.3     
   5 C5            -1.6335    -2.0496     0.0635 C.3     
   6 C6             1.1822     2.1755     0.0025 C.ar    
   7 C7             1.1652     3.5645     0.0101 C.ar    
   8 C8             2.3535     4.2681     0.0030 C.ar    
   9 C9             3.5594     3.5915    -0.0117 C.ar    
  10 C10            3.5800     2.2088    -0.0193 C.ar    
  11 C11            2.3954     1.4990    -0.0070 C.ar    
  12 C12            4.8541     4.3627    -0.0199 C.3     
  13 C13            5.6730     3.9977     1.2200 C.3     
  14 C14            6.9874     4.7807     1.2116 C.3     
  15 C15            7.7830     4.4283    -0.0469 C.3     
  16 C16            6.9641     4.7933    -1.2867 C.3     
  17 C17            5.6497     4.0103    -1.2784 C.3     
  18 H18           -0.8643     1.9343     0.0167 H       
  19 H19            0.5123    -0.3556    -0.8948 H       
  20 H20            0.5293    -0.3651     0.8851 H       
  21 H21           -2.1649     0.0934     0.5225 H       
  22 H22           -2.4983    -2.4299     0.6073 H       
  23 H23           -0.7439    -2.6789     0.0894 H       
  24 H24            0.2237     4.0936     0.0212 H       
  25 H25            2.3410     5.3481     0.0086 H       
  26 H26            4.5235     1.6835    -0.0308 H       
  27 H27            2.4122     0.4191    -0.0084 H       
  28 H28            4.6404     5.4315    -0.0125 H       
  29 H29            5.1062     4.2488     2.1165 H       
  30 H30            5.8867     2.9289     1.2126 H       
  31 H31            6.7738     5.8495     1.2190 H       
  32 H32            7.5708     4.5207     2.0949 H       
  33 H33            8.7194     4.9861    -0.0528 H       
  34 H34            7.9967     3.3595    -0.0543 H       
  35 H35            6.7504     5.8621    -1.2793 H       
  36 H36            7.5309     4.5423    -2.1833 H       
  37 H37            5.8633     2.9415    -1.2858 H       
  38 H38            5.0663     4.2703    -2.1617 H       
@<TRIPOS>BOND
   1    1    2 1
   2    1    6 1
   3    1   18 1
   4    2    4 1
   5    2   19 1
   6    2   20 1
   7    3    4 1
   8    3    5 1
   9    4    5 1
  10    4   21 1
  11    5   22 1
  12    5   23 1
  13    6    7 ar
  14    6   11 ar
  15    7    8 ar
  16    7   24 1
  17    8    9 ar
  18    8   25 1
  19    9   10 ar
  20    9   12 1
  21   10   11 ar
  22   10   26 1
  23   11   27 1
  24   12   13 1
  25   12   17 1
  26   12   28 1
  27   13   14 1
  28   13   29 1
  29   13   30 1
  30   14   15 1
  31   14   31 1
  32   14   32 1
  33   15   16 1
  34   15   33 1
  35   15   34 1
  36   16   17 1
  37   16   35 1
  38   16   36 1
  39   17   37 1
  40   17   38 1

#	End of record

