#	Name: ASD01209263
#	Creating user name:	WinNT
#	Creation time:	15. 06. 2019 19:11

#	Modifying user name:	WinNT
#	Modification time:	15. 06. 2019 19:11

#	Program:	/corina/corina34_cracker 3.40 0067  02.08.2006

@<TRIPOS>MOLECULE
ASD01209263
  71   73    0    0    0
SMALL
NO_CHARGES


@<TRIPOS>ATOM
   1 C1            -0.0708     1.4544     0.0348 C.3     
   2 C2            -0.2303    -0.0441     0.0213 C.ar    
   3 C3            -0.8376    -0.6648    -1.0542 C.ar    
   4 C4            -0.9840    -2.0393    -1.0666 C.ar    
   5 C5            -0.5227    -2.7932    -0.0037 C.ar    
   6 C6             0.0854    -2.1725     1.0714 C.ar    
   7 C7             0.2357    -0.7984     1.0818 C.ar    
   8 S8            -0.7104    -4.5451    -0.0189 S.o2    
   9 O9            -0.7326    -4.9071     1.3550 O.2     
  10 O10           -1.8380    -4.7695    -0.8540 O.2     
  11 C11            0.8017    -5.1554    -0.8137 C.3     
  12 C12            1.3928     1.8030     0.1208 C.2     
  13 O13            2.2173     0.9260     0.2694 O.2     
  14 N14            1.7855     3.0892     0.0325 N.am    
  15 C15            3.1239     3.4209     0.2081 C.2     
  16 C16            5.2999     6.7794    -1.0424 C.3     
  17 P17            6.0182     8.4550    -1.0384 P.3     
  18 O18            7.4634     8.3715    -0.7307 O.2     
  19 O19            5.8159     9.1290    -2.4865 O.3     
  20 C20            6.3618    10.4027    -2.8352 C.3     
  21 C21            5.9827    10.7424    -4.2780 C.3     
  22 O22            5.2826     9.3516     0.0783 O.3     
  23 C23            5.6893    10.6834     0.3989 C.3     
  24 C24            4.7820    11.2435     1.4962 C.3     
  25 C25           -0.8052     2.0346     1.2452 C.3     
  26 C26           -2.3070     1.7809     1.1002 C.3     
  27 N27            3.6056     4.6226     0.1440 N.2     
  28 C28            4.9045     4.7567     0.3365 C.2     
  29 C29            5.5511     3.6139     0.5746 C.2     
  30 S30            4.3732     2.3041     0.5473 S.3     
  31 C31           -3.0457     2.2522     2.3651 C.3     
  32 C32           -4.0335     3.3486     1.9159 C.3     
  33 C33           -4.2727     3.0523     0.4145 C.3     
  34 C34           -2.8717     2.6074    -0.0736 C.3     
  35 C35            5.6010     6.0923     0.2911 C.3     
  36 O36            7.0110     5.8989     0.4196 O.3     
  37 H37           -0.4908     1.8728    -0.8799 H       
  38 H38           -1.1980    -0.0759    -1.8847 H       
  39 H39           -1.4591    -2.5242    -1.9066 H       
  40 H40            0.4455    -2.7614     1.9020 H       
  41 H41            0.7108    -0.3135     1.9218 H       
  42 H42            1.6692    -4.8441    -0.2316 H       
  43 H43            0.7709    -6.2437    -0.8660 H       
  44 H44            0.8738    -4.7451    -1.8209 H       
  45 H45            1.1342     3.7835    -0.1536 H       
  46 H46            4.2209     6.8470    -1.1808 H       
  47 H47            5.7350     6.1995    -1.8563 H       
  48 H48            5.9627    11.1647    -2.1657 H       
  49 H49            7.4474    10.3704    -2.7427 H       
  50 H50            4.8971    10.7747    -4.3705 H       
  51 H51            6.3991    11.7140    -4.5440 H       
  52 H52            6.3819     9.9805    -4.9475 H       
  53 H53            6.7210    10.6736     0.7504 H       
  54 H54            5.6142    11.3101    -0.4897 H       
  55 H55            3.7503    11.2533     1.1447 H       
  56 H56            4.8571    10.6168     2.3849 H       
  57 H57            5.0922    12.2594     1.7408 H       
  58 H58           -0.4419     1.5557     2.1544 H       
  59 H59           -0.6217     3.1075     1.3014 H       
  60 H60           -2.4917     0.7197     0.9335 H       
  61 H61            6.6106     3.5106     0.7566 H       
  62 H62           -3.5896     1.4199     2.8118 H       
  63 H63           -2.3342     2.6616     3.0823 H       
  64 H64           -4.9671     3.2726     2.4732 H       
  65 H65           -3.5909     4.3365     2.0440 H       
  66 H66           -4.9983     2.2485     0.2903 H       
  67 H67           -4.5969     3.9513    -0.1097 H       
  68 H68           -2.2415     3.4756    -0.2668 H       
  69 H69           -2.9575     1.9905    -0.9681 H       
  70 H70            5.2437     6.7164     1.1102 H       
  71 H71            7.3980     5.3515    -0.2772 H       
@<TRIPOS>BOND
   1    1    2 1
   2    1   12 1
   3    1   25 1
   4    1   37 1
   5    2    3 ar
   6    2    7 ar
   7    3    4 ar
   8    3   38 1
   9    4    5 ar
  10    4   39 1
  11    5    6 ar
  12    5    8 1
  13    6    7 ar
  14    6   40 1
  15    7   41 1
  16    8    9 2
  17    8   10 2
  18    8   11 1
  19   11   42 1
  20   11   43 1
  21   11   44 1
  22   12   13 2
  23   12   14 am
  24   14   15 1
  25   14   45 1
  26   15   27 2
  27   15   30 1
  28   16   17 1
  29   16   35 1
  30   16   46 1
  31   16   47 1
  32   17   18 2
  33   17   19 1
  34   17   22 1
  35   19   20 1
  36   20   21 1
  37   20   48 1
  38   20   49 1
  39   21   50 1
  40   21   51 1
  41   21   52 1
  42   22   23 1
  43   23   24 1
  44   23   53 1
  45   23   54 1
  46   24   55 1
  47   24   56 1
  48   24   57 1
  49   25   26 1
  50   25   58 1
  51   25   59 1
  52   26   31 1
  53   26   34 1
  54   26   60 1
  55   27   28 1
  56   28   29 2
  57   28   35 1
  58   29   30 1
  59   29   61 1
  60   31   32 1
  61   31   62 1
  62   31   63 1
  63   32   33 1
  64   32   64 1
  65   32   65 1
  66   33   34 1
  67   33   66 1
  68   33   67 1
  69   34   68 1
  70   34   69 1
  71   35   36 1
  72   35   70 1
  73   36   71 1

#	End of record

