#	Name: ASD02198808
#	Creating user name:	WinNT
#	Creation time:	15. 06. 2019 20:20

#	Modifying user name:	WinNT
#	Modification time:	15. 06. 2019 20:20

#	Program:	/corina/corina34_cracker 3.40 0067  02.08.2006

@<TRIPOS>MOLECULE
ASD02198808
  52   56    0    0    0
SMALL
NO_CHARGES


@<TRIPOS>ATOM
   1 C1            -0.0433     1.5017    -0.1150 C.2     
   2 C2            -0.0730     0.1619     0.0975 C.2     
   3 N3             1.0713    -0.5395     0.2603 N.pl3   
   4 N4             2.2357    -0.0048     0.2263 N.2     
   5 C5             2.4072     1.2848     0.0276 C.2     
   6 C6             1.2215     2.1358    -0.1605 C.2     
   7 C7             0.9798    -1.9185     0.4772 C.ar    
   8 C8             1.5814    -2.4901     1.5977 C.ar    
   9 C9             1.4885    -3.8554     1.8097 C.ar    
  10 C10            0.7971    -4.6514     0.9070 C.ar    
  11 C11            0.1987    -4.0798    -0.2091 C.ar    
  12 C12            0.2847    -2.7187    -0.4202 C.ar    
  13 C13            3.7641     1.8671    -0.0050 C.2     
  14 N14            4.3061     2.6069    -1.0182 N.pl3   
  15 N15            5.6081     2.9584    -0.6406 N.2     
  16 C16            5.8519     2.4589     0.5448 C.2     
  17 C17            4.7197     1.7719     0.9828 C.2     
  18 C18            3.6732     2.9513    -2.2193 C.ar    
  19 C19            3.8069     4.2344    -2.7334 C.ar    
  20 C20            3.1820     4.5706    -3.9182 C.ar    
  21 C21            2.4237     3.6312    -4.5925 C.ar    
  22 C22            2.2881     2.3528    -4.0830 C.ar    
  23 C23            2.9153     2.0087    -2.9016 C.ar    
  24 O24            1.3244     3.3389    -0.3487 O.2     
  25 N25            0.7029    -6.0334     1.1213 N.pl3   
  26 N26            1.2544    -6.7403     2.1977 N.2     
  27 C27            0.9551    -8.0061     2.0522 C.2     
  28 C28            0.2043    -8.1468     0.8800 C.2     
  29 C29            0.0586    -6.9195     0.3287 C.2     
  30 C30            7.1408     2.6066     1.3117 C.3     
  31 O31            2.2582    -1.7088     2.4800 O.3     
  32 C32            2.8491    -2.3625     3.6050 C.3     
  33 H33           -0.9547     2.0653    -0.2496 H       
  34 H34           -1.0228    -0.3506     0.1374 H       
  35 H35            1.9539    -4.3006     2.6766 H       
  36 H36           -0.3384    -4.7012    -0.9104 H       
  37 H37           -0.1816    -2.2767    -1.2883 H       
  38 H38            4.6138     1.2528     1.9240 H       
  39 H39            4.3988     4.9686    -2.2070 H       
  40 H40            3.2853     5.5685    -4.3183 H       
  41 H41            1.9359     3.8966    -5.5188 H       
  42 H42            1.6949     1.6215    -4.6118 H       
  43 H43            2.8093     1.0100    -2.5043 H       
  44 H44            1.2389    -8.8046     2.7218 H       
  45 H45           -0.1921    -9.0712     0.4866 H       
  46 H46           -0.4715    -6.6900    -0.5838 H       
  47 H47            7.0937     3.5013     1.9325 H       
  48 H48            7.2888     1.7321     1.9453 H       
  49 H49            7.9720     2.6932     0.6120 H       
  50 H50            3.3572    -1.6261     4.2275 H       
  51 H51            2.0717    -2.8565     4.1877 H       
  52 H52            3.5691    -3.1035     3.2577 H       
@<TRIPOS>BOND
   1    1    2 2
   2    1    6 1
   3    1   33 1
   4    2    3 1
   5    2   34 1
   6    3    4 1
   7    3    7 1
   8    4    5 2
   9    5    6 1
  10    5   13 1
  11    6   24 2
  12    7    8 ar
  13    7   12 ar
  14    8    9 ar
  15    8   31 1
  16    9   10 ar
  17    9   35 1
  18   10   11 ar
  19   10   25 1
  20   11   12 ar
  21   11   36 1
  22   12   37 1
  23   13   14 1
  24   13   17 2
  25   14   15 1
  26   14   18 1
  27   15   16 2
  28   16   17 1
  29   16   30 1
  30   17   38 1
  31   18   19 ar
  32   18   23 ar
  33   19   20 ar
  34   19   39 1
  35   20   21 ar
  36   20   40 1
  37   21   22 ar
  38   21   41 1
  39   22   23 ar
  40   22   42 1
  41   23   43 1
  42   25   26 1
  43   25   29 1
  44   26   27 2
  45   27   28 1
  46   27   44 1
  47   28   29 2
  48   28   45 1
  49   29   46 1
  50   30   47 1
  51   30   48 1
  52   30   49 1
  53   31   32 1
  54   32   50 1
  55   32   51 1
  56   32   52 1

#	End of record

