#	Name: ASD01200318
#	Creating user name:	WinNT
#	Creation time:	15. 06. 2019 19:08

#	Modifying user name:	WinNT
#	Modification time:	15. 06. 2019 19:08

#	Program:	/corina/corina34_cracker 3.40 0067  02.08.2006

@<TRIPOS>MOLECULE
ASD01200318
  26   27    0    0    0
SMALL
NO_CHARGES


@<TRIPOS>ATOM
   1 N1             0.4397     1.2711     0.7064 N.ar    
   2 C2             0.3929    -0.0216     0.4547 C.ar    
   3 C3             1.4393    -0.8547     0.8298 C.ar    
   4 C4             2.5422    -0.3040     1.4776 C.ar    
   5 C5             2.5487     1.0597     1.7219 C.ar    
   6 C6             1.4695     1.8232     1.3180 C.ar    
   7 N7             1.3857    -2.2262     0.5613 N.am    
   8 C8             0.2031    -2.8721     0.5861 C.2     
   9 O9            -0.8041    -2.2844     0.9347 O.2     
  10 N10            1.1521    -5.0322    -0.3439 N.pl3   
  11 C11            0.1298    -4.2830     0.1930 C.2     
  12 C12           -0.9757    -5.1010     0.2943 C.2     
  13 C13           -0.6025    -6.3581    -0.1912 C.2     
  14 C14            0.6955    -6.2878    -0.5722 C.2     
  15 C15            2.5065    -4.5509    -0.6273 C.3     
  16 H16           -0.4678    -0.4376    -0.0480 H       
  17 H17            3.3717    -0.9247     1.7825 H       
  18 H18            3.3873     1.5209     2.2223 H       
  19 H19            1.4696     2.8867     1.5060 H       
  20 H20            2.1998    -2.7126     0.3572 H       
  21 H21           -1.9468    -4.8231     0.6767 H       
  22 H22           -1.2366    -7.2302    -0.2516 H       
  23 H23            1.2722    -7.0997    -0.9902 H       
  24 H24            3.1043    -4.5912     0.2832 H       
  25 H25            2.9637    -5.1808    -1.3904 H       
  26 H26            2.4591    -3.5226    -0.9856 H       
@<TRIPOS>BOND
   1    1    2 ar
   2    1    6 ar
   3    2    3 ar
   4    2   16 1
   5    3    4 ar
   6    3    7 1
   7    4    5 ar
   8    4   17 1
   9    5    6 ar
  10    5   18 1
  11    6   19 1
  12    7    8 am
  13    7   20 1
  14    8    9 2
  15    8   11 1
  16   10   11 1
  17   10   14 1
  18   10   15 1
  19   11   12 2
  20   12   13 1
  21   12   21 1
  22   13   14 2
  23   13   22 1
  24   14   23 1
  25   15   24 1
  26   15   25 1
  27   15   26 1

#	End of record

