#	Name: ASD01903078
#	Creating user name:	WinNT
#	Creation time:	15. 06. 2019 19:54

#	Modifying user name:	WinNT
#	Modification time:	15. 06. 2019 19:54

#	Program:	/corina/corina34_cracker 3.40 0067  02.08.2006

@<TRIPOS>MOLECULE
ASD01903078
  46   49    0    0    0
SMALL
NO_CHARGES


@<TRIPOS>ATOM
   1 C1            -0.0666     1.3245     0.0133 C.2     
   2 N2            -0.0128     0.0281    -0.0129 N.2     
   3 C3            -1.1635    -0.6231     0.0817 C.2     
   4 C4            -2.2563     0.1497     0.1944 C.2     
   5 S5            -1.7434     1.8355     0.1829 S.3     
   6 C6            -1.2394    -2.1063     0.0638 C.2     
   7 N7             1.0262     2.1745    -0.0727 N.pl3   
   8 C8            -2.1507    -2.9026     0.7893 C.2     
   9 N9            -1.9092    -4.1558     0.5162 N.2     
  10 N10           -0.8421    -4.2180    -0.3883 N.am    
  11 C11           -0.4458    -2.9431    -0.6603 C.2     
  12 C12            0.8332     3.5506    -0.1444 C.ar    
  13 N13           -0.3951     4.0373    -0.2306 N.ar    
  14 C14           -0.6217     5.3354    -0.3002 C.ar    
  15 C15            0.4225     6.2382    -0.2858 C.ar    
  16 C16            1.7264     5.7686    -0.1964 C.ar    
  17 C17            1.9324     4.4031    -0.1192 C.ar    
  18 C18           -3.6761    -0.3406     0.3163 C.3     
  19 C19           -0.3046    -5.3415    -0.9033 C.2     
  20 O20            0.5937    -5.2671    -1.7180 O.2     
  21 N21           -0.7636    -6.5477    -0.5147 N.am    
  22 C22           -1.9549    -6.6559     0.3384 C.3     
  23 C23           -2.9586    -7.5981    -0.3335 C.3     
  24 C24           -2.2760    -8.9349    -0.6325 C.3     
  25 C25           -1.1071    -8.7089    -1.5941 C.3     
  26 C26           -0.0857    -7.7795    -0.9410 C.3     
  27 H27            1.9249     1.8095    -0.0829 H       
  28 H28           -2.9169    -2.5374     1.4571 H       
  29 H29            0.3551    -2.6503    -1.3231 H       
  30 H30           -1.6373     5.6962    -0.3696 H       
  31 H31            0.2275     7.2988    -0.3439 H       
  32 H32            2.5606     6.4545    -0.1833 H       
  33 H33            2.9334     4.0037    -0.0486 H       
  34 H34           -3.9247    -0.4757     1.3689 H       
  35 H35           -4.3524     0.3910    -0.1258 H       
  36 H36           -3.7781    -1.2919    -0.2061 H       
  37 H37           -1.6721    -7.0571     1.3117 H       
  38 H38           -2.4054    -5.6713     0.4636 H       
  39 H39           -3.8053    -7.7630     0.3329 H       
  40 H40           -3.3091    -7.1524    -1.2644 H       
  41 H41           -1.9040    -9.3683     0.2959 H       
  42 H42           -2.9949    -9.6157    -1.0883 H       
  43 H43           -0.6360    -9.6644    -1.8249 H       
  44 H44           -1.4750    -8.2528    -2.5131 H       
  45 H45            0.6986    -7.5370    -1.6581 H       
  46 H46            0.3507    -8.2699    -0.0709 H       
@<TRIPOS>BOND
   1    1    2 2
   2    1    7 1
   3    1    5 1
   4    2    3 1
   5    3    4 2
   6    3    6 1
   7    4    5 1
   8    4   18 1
   9    6    8 1
  10    6   11 2
  11    7   12 1
  12    7   27 1
  13    8    9 2
  14    8   28 1
  15    9   10 1
  16   10   11 1
  17   10   19 am
  18   11   29 1
  19   12   13 ar
  20   12   17 ar
  21   13   14 ar
  22   14   15 ar
  23   14   30 1
  24   15   16 ar
  25   15   31 1
  26   16   17 ar
  27   16   32 1
  28   17   33 1
  29   18   34 1
  30   18   35 1
  31   18   36 1
  32   19   20 2
  33   19   21 am
  34   21   22 1
  35   21   26 1
  36   22   23 1
  37   22   37 1
  38   22   38 1
  39   23   24 1
  40   23   39 1
  41   23   40 1
  42   24   25 1
  43   24   41 1
  44   24   42 1
  45   25   26 1
  46   25   43 1
  47   25   44 1
  48   26   45 1
  49   26   46 1

#	End of record

