#	Name: ASD03091570
#	Creating user name:	WinNT
#	Creation time:	15. 06. 2019 20:31

#	Modifying user name:	WinNT
#	Modification time:	15. 06. 2019 20:31

#	Program:	/corina/corina34_cracker 3.40 0067  02.08.2006

@<TRIPOS>MOLECULE
ASD03091570
  51   54    0    0    0
SMALL
NO_CHARGES


@<TRIPOS>ATOM
   1 C1            -0.0191     1.3492     0.0166 C.2     
   2 C2            -0.0041     0.0111     0.1907 C.2     
   3 N3            -1.1909    -0.5542     0.1460 N.2     
   4 C4            -2.2100     0.2259    -0.0558 C.2     
   5 S5            -1.6939     1.8486    -0.2062 S.3     
   6 N6            -3.5250    -0.1954    -0.1318 N.3     
   7 C7            -3.6230    -1.6514     0.0469 C.3     
   8 C8            -4.3613     0.5076     0.8519 C.3     
   9 C9            -5.8155     0.0559     0.6933 C.3     
  10 O10           -5.8866    -1.3651     0.8391 O.3     
  11 C11           -5.0845    -2.0815    -0.1037 C.3     
  12 C12           -5.2049    -3.5837     0.1605 C.3     
  13 C13           -6.6778     0.7234     1.7664 C.3     
  14 C14            1.1590     2.2382     0.0187 C.ar    
  15 C15            1.1844     3.3987     0.8041 C.ar    
  16 C16            2.2857     1.9427    -0.7600 C.ar    
  17 C17            3.3638     2.8007    -0.7273 C.ar    
  18 N18            3.3439     3.8864     0.0233 N.ar    
  19 C19            2.3052     4.1996     0.7759 C.ar    
  20 C20            1.2650    -0.7694     0.4173 C.3     
  21 N21            1.6120    -0.7364     1.8443 N.3     
  22 C22            4.5824     2.4948    -1.5594 C.3     
  23 C23            2.3435     5.4538     1.6105 C.3     
  24 C24            1.7198     6.7177     1.0153 C.3     
  25 C25            1.0144     5.9805     2.1554 C.3     
  26 H26           -3.0165    -2.1523    -0.7077 H       
  27 H27           -3.2647    -1.9210     1.0405 H       
  28 H28           -4.0149     0.2725     1.8583 H       
  29 H29           -4.2938     1.5826     0.6850 H       
  30 H30           -6.1788     0.3390    -0.2946 H       
  31 H31           -5.4266    -1.8605    -1.1147 H       
  32 H32           -6.2462    -3.8885     0.0569 H       
  33 H33           -4.5934    -4.1291    -0.5584 H       
  34 H34           -4.8607    -3.8036     1.1710 H       
  35 H35           -6.6201     1.8064     1.6571 H       
  36 H36           -7.7129     0.4014     1.6529 H       
  37 H37           -6.3147     0.4380     2.7537 H       
  38 H38            0.3383     3.6613     1.4218 H       
  39 H39            2.3091     1.0560    -1.3762 H       
  40 H40            1.1170    -1.8027     0.1032 H       
  41 H41            2.0733    -0.3253    -0.1636 H       
  42 H42            2.4601    -1.2532     2.0223 H       
  43 H43            1.6912     0.2135     2.1753 H       
  44 H44            4.4759     2.9541    -2.5422 H       
  45 H45            5.4687     2.8938    -1.0661 H       
  46 H46            4.6841     1.4154    -1.6719 H       
  47 H47            3.2279     5.5754     2.2359 H       
  48 H48            2.1936     7.6710     1.2494 H       
  49 H49            1.2818     6.6421     0.0200 H       
  50 H50            0.1123     5.4200     1.9102 H       
  51 H51            1.0242     6.4488     3.1397 H       
@<TRIPOS>BOND
   1    1    2 2
   2    1   14 1
   3    1    5 1
   4    2    3 1
   5    2   20 1
   6    3    4 2
   7    4    5 1
   8    4    6 1
   9    6    7 1
  10    6    8 1
  11    7   11 1
  12    7   26 1
  13    7   27 1
  14    8    9 1
  15    8   28 1
  16    8   29 1
  17    9   10 1
  18    9   13 1
  19    9   30 1
  20   10   11 1
  21   11   12 1
  22   11   31 1
  23   12   32 1
  24   12   33 1
  25   12   34 1
  26   13   35 1
  27   13   36 1
  28   13   37 1
  29   14   15 ar
  30   14   16 ar
  31   15   19 ar
  32   15   38 1
  33   16   17 ar
  34   16   39 1
  35   17   18 ar
  36   17   22 1
  37   18   19 ar
  38   19   23 1
  39   20   21 1
  40   20   40 1
  41   20   41 1
  42   21   42 1
  43   21   43 1
  44   22   44 1
  45   22   45 1
  46   22   46 1
  47   23   24 1
  48   23   25 1
  49   23   47 1
  50   24   25 1
  51   24   48 1
  52   24   49 1
  53   25   50 1
  54   25   51 1

#	End of record

