#	Name: ASD05720055
#	Creating user name:	WinNT
#	Creation time:	15. 06. 2019 21:01

#	Modifying user name:	WinNT
#	Modification time:	15. 06. 2019 21:01

#	Program:	/corina/corina34_cracker 3.40 0067  02.08.2006

@<TRIPOS>MOLECULE
ASD05720055
  45   49    0    0    0
SMALL
NO_CHARGES


@<TRIPOS>ATOM
   1 O1            -0.0839     1.1461     0.0702 O.3     
   2 C2             0.0847    -0.1799     0.0213 C.2     
   3 N3             1.3684    -0.5618    -0.0244 N.am    
   4 C4             2.2222     0.6359    -0.0060 C.3     
   5 C5             1.2171     1.8020     0.0589 C.3     
   6 O6            -0.8413    -0.9664     0.0190 O.2     
   7 C7             3.5572    -3.3807    -0.2820 C.2     
   8 N8             3.1065    -2.1236    -0.2276 N.2     
   9 C9             1.8191    -1.8741    -0.0794 C.2     
  10 C10            0.9012    -2.9391     0.0235 C.2     
  11 C11            1.3538    -4.2124    -0.0312 C.2     
  12 N12            2.6933    -4.4392    -0.1852 N.pl3   
  13 N13            3.4437    -5.6171    -0.2743 N.2     
  14 C14            4.7101    -5.3134    -0.4191 C.2     
  15 C15            4.8416    -3.9195    -0.4362 C.2     
  16 C16            6.1016    -3.1577    -0.5871 C.ar    
  17 C17            7.2031    -3.4648     0.2133 C.ar    
  18 C18            8.3767    -2.7544     0.0720 C.ar    
  19 C19            8.4617    -1.7281    -0.8723 C.ar    
  20 C20            7.3604    -1.4226    -1.6711 C.ar    
  21 C21            6.1903    -2.1357    -1.5340 C.ar    
  22 N22           11.2472     0.4543    -1.6816 N.pl3   
  23 N23            9.9255     0.0205    -1.8741 N.2     
  24 C24            9.7230    -0.9634    -1.0246 C.2     
  25 N25           10.8457    -1.1599    -0.3197 N.2     
  26 C26           11.7644    -0.3148    -0.7068 C.2     
  27 F27            9.4434    -3.0503     0.8464 F       
  28 C28            3.0596     0.7187    -1.2839 C.3     
  29 C29            4.0072     1.9166    -1.1959 C.3     
  30 H30            2.8647     0.6346     0.8745 H       
  31 H31            1.3155     2.4406    -0.8189 H       
  32 H32            1.3614     2.3804     0.9715 H       
  33 H33           -0.1533    -2.7401     0.1451 H       
  34 H34            0.6650    -5.0406     0.0463 H       
  35 H35            5.5195    -6.0222    -0.5133 H       
  36 H36            7.1363    -4.2581     0.9432 H       
  37 H37            7.4266    -0.6292    -2.4008 H       
  38 H38            5.3393    -1.9012    -2.1563 H       
  39 H39           11.6998     1.1661    -2.1606 H       
  40 H40           12.7671    -0.2457    -0.3116 H       
  41 H41            3.6405    -0.1966    -1.3975 H       
  42 H42            2.4000     0.8394    -2.1433 H       
  43 H43            3.4262     2.8386    -1.1734 H       
  44 H44            4.6047     1.8413    -0.2874 H       
  45 H45            4.6659     1.9234    -2.0644 H       
@<TRIPOS>BOND
   1    1    2 1
   2    1    5 1
   3    2    3 am
   4    2    6 2
   5    3    4 1
   6    3    9 1
   7    4    5 1
   8    4   28 1
   9    4   30 1
  10    5   31 1
  11    5   32 1
  12    7    8 1
  13    7   12 1
  14    7   15 2
  15    8    9 2
  16    9   10 1
  17   10   11 2
  18   10   33 1
  19   11   12 1
  20   11   34 1
  21   12   13 1
  22   13   14 2
  23   14   15 1
  24   14   35 1
  25   15   16 1
  26   16   17 ar
  27   16   21 ar
  28   17   18 ar
  29   17   36 1
  30   18   19 ar
  31   18   27 1
  32   19   20 ar
  33   19   24 1
  34   20   21 ar
  35   20   37 1
  36   21   38 1
  37   22   23 1
  38   22   26 1
  39   22   39 1
  40   23   24 2
  41   24   25 1
  42   25   26 2
  43   26   40 1
  44   28   29 1
  45   28   41 1
  46   28   42 1
  47   29   43 1
  48   29   44 1
  49   29   45 1

#	End of record

