#	Name: ASD04590845
#	Creating user name:	WinNT
#	Creation time:	15. 06. 2019 20:51

#	Modifying user name:	WinNT
#	Modification time:	15. 06. 2019 20:51

#	Program:	/corina/corina34_cracker 3.40 0067  02.08.2006

@<TRIPOS>MOLECULE
ASD04590845
  71   76    0    0    0
SMALL
NO_CHARGES


@<TRIPOS>ATOM
   1 N1            -3.5267    -3.8250    -1.2160 N.ar    
   2 C2            -2.2763    -3.3849    -1.2768 C.ar    
   3 N3            -1.2484    -4.1982    -1.4576 N.ar    
   4 C4            -1.4363    -5.5082    -1.5870 C.ar    
   5 C5            -2.7532    -6.0072    -1.5270 C.ar    
   6 C6            -3.8019    -5.1133    -1.3353 C.ar    
   7 N7            -0.5811    -6.5644    -1.7798 N.pl3   
   8 C8            -1.2889    -7.7526    -1.8500 C.ar    
   9 C9            -2.6550    -7.4625    -1.6977 C.ar    
  10 C10           -0.9108    -9.0802    -2.0304 C.ar    
  11 N11           -1.8204   -10.0353    -2.0562 N.ar    
  12 C12           -3.1114    -9.7880    -1.9153 C.ar    
  13 C13           -3.5727    -8.5132    -1.7342 C.ar    
  14 N14           -2.0389    -2.0266    -1.1468 N.pl3   
  15 C15           -3.1097    -1.1356    -1.0681 C.ar    
  16 N16           -4.3486    -1.5732    -1.2205 N.ar    
  17 N17           -5.3632    -0.7899    -1.1556 N.ar    
  18 C18           -5.2381     0.5081    -0.9319 C.ar    
  19 C19           -3.9696     1.0639    -0.7579 C.ar    
  20 C20           -2.8763     0.2183    -0.8227 C.ar    
  21 N21           -6.3698     1.3183    -0.8705 N.3     
  22 C22            0.8748    -6.4506    -1.8957 C.3     
  23 C23           -7.5920     0.5318    -1.0802 C.3     
  24 C24           -8.7984     1.4707    -1.1514 C.3     
  25 C25           -8.8982     2.2655     0.1536 C.3     
  26 C26           -7.5941     3.0375     0.3728 C.3     
  27 C27           -6.4226     2.0532     0.3998 C.3     
  28 N28          -10.0197     3.2104     0.0685 N.3     
  29 C29          -10.2195     3.9068     1.3464 C.3     
  30 C30           -9.8192     4.1681    -1.0272 C.3     
  31 C31            1.2400    -5.4966    -3.0517 C.3     
  32 C32            1.4589    -5.8316    -0.6137 C.3     
  33 C33            2.1586    -4.5230    -1.0355 C.3     
  34 C34            1.4594    -4.1282    -2.3600 C.3     
  35 C35          -10.8569     2.9490     2.3549 C.3     
  36 C36          -11.1447     4.8621    -1.3470 C.3     
  37 F37            0.3951    -9.3922    -2.1802 F       
  38 H38           -4.8219    -5.4648    -1.2846 H       
  39 H39           -3.8146   -10.6072    -1.9447 H       
  40 H40           -4.6297    -8.3230    -1.6203 H       
  41 H41           -1.1281    -1.6947    -1.1104 H       
  42 H42           -3.8455     2.1210    -0.5747 H       
  43 H43           -1.8725     0.5957    -0.6948 H       
  44 H44            1.3132    -7.4334    -2.0690 H       
  45 H45           -7.5098    -0.0252    -2.0135 H       
  46 H46           -7.7223    -0.1647    -0.2520 H       
  47 H47           -8.6754     2.1586    -1.9879 H       
  48 H48           -9.7073     0.8855    -1.2914 H       
  49 H49           -9.0602     1.5804     0.9858 H       
  50 H50           -7.4521     3.7500    -0.4397 H       
  51 H51           -7.6425     3.5717     1.3217 H       
  52 H52           -6.5584     1.3495     1.2211 H       
  53 H53           -5.4911     2.6011     0.5414 H       
  54 H54           -9.2575     4.2489     1.7281 H       
  55 H55          -10.8757     4.7638     1.1944 H       
  56 H56           -9.0818     4.9131    -0.7282 H       
  57 H57           -9.4634     3.6393    -1.9115 H       
  58 H58            2.1549    -5.8263    -3.5439 H       
  59 H59            0.4211    -5.4348    -3.7684 H       
  60 H60            0.6591    -5.6158     0.0946 H       
  61 H61            2.1814    -6.5136    -0.1654 H       
  62 H62            2.0101    -3.7507    -0.2808 H       
  63 H63            3.2219    -4.6955    -1.2021 H       
  64 H64            2.1056    -3.4900    -2.9626 H       
  65 H65            0.5061    -3.6380    -2.1624 H       
  66 H66          -11.0928     3.4903     3.2712 H       
  67 H67          -11.7718     2.5330     1.9329 H       
  68 H68          -10.1603     2.1412     2.5793 H       
  69 H69          -11.8755     4.1196    -1.6674 H       
  70 H70          -11.5117     5.3724    -0.4565 H       
  71 H71          -10.9912     5.5887    -2.1448 H       
@<TRIPOS>BOND
   1    1    2 ar
   2    1    6 ar
   3    2    3 ar
   4    2   14 1
   5    3    4 ar
   6    4    5 ar
   7    4    7 1
   8    5    6 ar
   9    5    9 1
  10    6   38 1
  11    7    8 1
  12    7   22 1
  13    8    9 ar
  14    8   10 ar
  15    9   13 ar
  16   10   11 ar
  17   10   37 1
  18   11   12 ar
  19   12   13 ar
  20   12   39 1
  21   13   40 1
  22   14   15 1
  23   14   41 1
  24   15   16 ar
  25   15   20 ar
  26   16   17 ar
  27   17   18 ar
  28   18   19 ar
  29   18   21 1
  30   19   20 ar
  31   19   42 1
  32   20   43 1
  33   21   23 1
  34   21   27 1
  35   22   32 1
  36   22   31 1
  37   22   44 1
  38   23   24 1
  39   23   45 1
  40   23   46 1
  41   24   25 1
  42   24   47 1
  43   24   48 1
  44   25   26 1
  45   25   28 1
  46   25   49 1
  47   26   27 1
  48   26   50 1
  49   26   51 1
  50   27   52 1
  51   27   53 1
  52   28   29 1
  53   28   30 1
  54   29   35 1
  55   29   54 1
  56   29   55 1
  57   30   36 1
  58   30   56 1
  59   30   57 1
  60   31   34 1
  61   31   58 1
  62   31   59 1
  63   32   33 1
  64   32   60 1
  65   32   61 1
  66   33   34 1
  67   33   62 1
  68   33   63 1
  69   34   64 1
  70   34   65 1
  71   35   66 1
  72   35   67 1
  73   35   68 1
  74   36   69 1
  75   36   70 1
  76   36   71 1

#	End of record

