#	Name: ASD04882226
#	Creating user name:	WinNT
#	Creation time:	15. 06. 2019 20:54

#	Modifying user name:	WinNT
#	Modification time:	15. 06. 2019 20:54

#	Program:	/corina/corina34_cracker 3.40 0067  02.08.2006

@<TRIPOS>MOLECULE
ASD04882226
  80   84    0    0    0
SMALL
NO_CHARGES


@<TRIPOS>ATOM
   1 N1            -0.1363     1.5551    -0.0364 N.am    
   2 C2            -0.0765     0.1556    -0.0459 C.ar    
   3 C3            -1.2529    -0.5953     0.0294 C.ar    
   4 C4            -1.1949    -1.9843     0.0205 C.ar    
   5 C5             0.0212    -2.6253    -0.0628 C.ar    
   6 C6             1.2015    -1.8804    -0.1388 C.ar    
   7 C7             1.1456    -0.4839    -0.1354 C.ar    
   8 N8            -2.4845     0.0486     0.1137 N.3     
   9 C9            -2.6119     0.7773     1.3835 C.3     
  10 C10           -3.5899    -0.9047    -0.0562 C.3     
  11 C11           -4.9202    -0.1481    -0.0366 C.3     
  12 N12           -5.0476     0.5807     1.2331 N.3     
  13 C13           -3.9422     1.5340     1.4031 C.3     
  14 C14           -6.2831     1.2266     1.3178 C.ar    
  15 C15            2.5040    -2.5674    -0.2275 C.2     
  16 O16            3.5303    -1.9186    -0.2936 O.2     
  17 C17            0.8454     2.2677     0.5510 C.2     
  18 O18            1.7283     1.6974     1.1618 O.2     
  19 C19           -6.6351     2.1826     0.3731 C.ar    
  20 C20           -7.1649     0.9106     2.3433 C.ar    
  21 C21           -8.3859     1.5513     2.4241 C.ar    
  22 C22           -8.7309     2.5060     1.4853 C.ar    
  23 C23           -7.8573     2.8192     0.4598 C.ar    
  24 C24            0.8484     3.7433     0.4527 C.ar    
  25 N25            2.5565    -3.9141    -0.2354 N.am    
  26 C26            3.8500    -4.5963    -0.3235 C.3     
  27 C27            3.6298    -6.1103    -0.3137 C.3     
  28 C28            4.9807    -6.8227    -0.4058 C.3     
  29 N29            4.7698    -8.2725    -0.3964 N.am    
  30 C30            4.5703    -9.0880    -1.6002 C.3     
  31 C31            3.9682   -10.4200    -1.1004 C.3     
  32 C32            4.4886   -10.4749     0.3546 C.3     
  33 C33            4.7400    -9.0274     0.7154 C.2     
  34 O34            4.8859    -8.6080     1.8439 O.2     
  35 C35           -6.7901    -0.1305     3.3664 C.3     
  36 N36           -0.1195     4.3594    -0.2163 N.ar    
  37 C37           -0.1559     5.6678    -0.3288 C.ar    
  38 C38            0.8281     6.4614     0.2546 C.ar    
  39 C39            1.8600     5.8532     0.9644 C.ar    
  40 C40            1.8647     4.4740     1.0681 C.ar    
  41 O41            0.7822     7.8124     0.1324 O.3     
  42 C42           -0.3081     8.3599    -0.6116 C.3     
  43 H43           -0.8823     2.0115    -0.4561 H       
  44 H44           -2.1055    -2.5620     0.0795 H       
  45 H45            0.0629    -3.7045    -0.0691 H       
  46 H46            2.0559     0.0943    -0.1944 H       
  47 H47           -2.5833     0.0706     2.2129 H       
  48 H48           -1.7892     1.4857     1.4804 H       
  49 H49           -3.4802    -1.4227    -1.0090 H       
  50 H50           -3.5724    -1.6306     0.7567 H       
  51 H51           -4.9488     0.5587    -0.8660 H       
  52 H52           -5.7429    -0.8564    -0.1335 H       
  53 H53           -4.0519     2.0519     2.3559 H       
  54 H54           -3.9597     2.2598     0.5901 H       
  55 H55           -5.9535     2.4277    -0.4279 H       
  56 H56           -9.0720     1.3061     3.2212 H       
  57 H57           -9.6865     3.0049     1.5504 H       
  58 H58           -8.1299     3.5654    -0.2719 H       
  59 H59            1.7378    -4.4317    -0.1826 H       
  60 H60            4.3506    -4.3079    -1.2478 H       
  61 H61            4.4686    -4.3136     0.5283 H       
  62 H62            3.1291    -6.3987     0.6105 H       
  63 H63            3.0112    -6.3930    -1.1655 H       
  64 H64            5.4813    -6.5343    -1.3300 H       
  65 H65            5.5993    -6.5401     0.4460 H       
  66 H66            3.8778    -8.5928    -2.2808 H       
  67 H67            5.5241    -9.2678    -2.0963 H       
  68 H68            2.8789   -10.3889    -1.1242 H       
  69 H69            4.3458   -11.2612    -1.6818 H       
  70 H70            3.7362   -10.9099     1.0126 H       
  71 H71            5.4169   -11.0438     0.4066 H       
  72 H72           -6.2776     0.3481     4.2009 H       
  73 H73           -7.6915    -0.6247     3.7289 H       
  74 H74           -6.1302    -0.8679     2.9095 H       
  75 H75           -0.9588     6.1335    -0.8811 H       
  76 H76            2.6362     6.4449     1.4269 H       
  77 H77            2.6498     3.9689     1.6113 H       
  78 H78           -1.2488     8.0763    -0.1396 H       
  79 H79           -0.2248     9.4465    -0.6320 H       
  80 H80           -0.2823     7.9743    -1.6308 H       
@<TRIPOS>BOND
   1    1    2 1
   2    1   17 am
   3    1   43 1
   4    2    3 ar
   5    2    7 ar
   6    3    4 ar
   7    3    8 1
   8    4    5 ar
   9    4   44 1
  10    5    6 ar
  11    5   45 1
  12    6    7 ar
  13    6   15 1
  14    7   46 1
  15    8    9 1
  16    8   10 1
  17    9   13 1
  18    9   47 1
  19    9   48 1
  20   10   11 1
  21   10   49 1
  22   10   50 1
  23   11   12 1
  24   11   51 1
  25   11   52 1
  26   12   13 1
  27   12   14 1
  28   13   53 1
  29   13   54 1
  30   14   19 ar
  31   14   20 ar
  32   15   16 2
  33   15   25 am
  34   17   18 2
  35   17   24 1
  36   19   23 ar
  37   19   55 1
  38   20   21 ar
  39   20   35 1
  40   21   22 ar
  41   21   56 1
  42   22   23 ar
  43   22   57 1
  44   23   58 1
  45   24   36 ar
  46   24   40 ar
  47   25   26 1
  48   25   59 1
  49   26   27 1
  50   26   60 1
  51   26   61 1
  52   27   28 1
  53   27   62 1
  54   27   63 1
  55   28   29 1
  56   28   64 1
  57   28   65 1
  58   29   30 1
  59   29   33 am
  60   30   31 1
  61   30   66 1
  62   30   67 1
  63   31   32 1
  64   31   68 1
  65   31   69 1
  66   32   33 1
  67   32   70 1
  68   32   71 1
  69   33   34 2
  70   35   72 1
  71   35   73 1
  72   35   74 1
  73   36   37 ar
  74   37   38 ar
  75   37   75 1
  76   38   39 ar
  77   38   41 1
  78   39   40 ar
  79   39   76 1
  80   40   77 1
  81   41   42 1
  82   42   78 1
  83   42   79 1
  84   42   80 1

#	End of record

