#	Name: ASD04590303
#	Creating user name:	WinNT
#	Creation time:	15. 06. 2019 20:50

#	Modifying user name:	WinNT
#	Modification time:	15. 06. 2019 20:50

#	Program:	/corina/corina34_cracker 3.40 0067  02.08.2006

@<TRIPOS>MOLECULE
ASD04590303
  46   49    0    0    0
SMALL
NO_CHARGES


@<TRIPOS>ATOM
   1 C1             0.1702     1.1906    -0.2792 C.ar    
   2 C2             0.0479    -0.1967    -0.4305 C.ar    
   3 C3             1.1483    -0.9589    -0.8114 C.ar    
   4 C4             2.3725    -0.3312    -1.0416 C.ar    
   5 C5             2.4766     1.0644    -0.8851 C.ar    
   6 C6             1.3666     1.8086    -0.5035 C.ar    
   7 N7             3.5954    -0.7850    -1.4137 N.2     
   8 C8             4.4307     0.2218    -1.4952 C.2     
   9 N9             3.7852     1.3871    -1.1772 N.pl3   
  10 C10            5.8551     0.1154    -1.8728 C.2     
  11 C11            6.5405    -1.0763    -2.2044 C.2     
  12 C12            7.8244    -0.7488    -2.4900 C.2     
  13 N13            7.9530     0.5965    -2.3466 N.pl3   
  14 N14            6.7093     1.1157    -1.9655 N.2     
  15 N15            5.9898    -2.3677    -2.2320 N.am    
  16 C16            6.7600    -3.4217    -2.5673 C.2     
  17 C17            6.1814    -4.7785    -2.5963 C.ar    
  18 O18            7.9318    -3.2543    -2.8459 O.2     
  19 C19            5.0627    -6.5437    -3.7890 C.ar    
  20 C20            5.0939    -7.3289    -2.6509 C.ar    
  21 C21            5.6593    -6.8474    -1.4841 C.ar    
  22 C22            6.2036    -5.5774    -1.4480 C.ar    
  23 C23            5.6024    -5.2714    -3.7707 C.ar    
  24 F24            5.5704    -4.5058    -4.8834 F       
  25 F25            6.7557    -5.1091    -0.3074 F       
  26 C26           -1.2522    -0.8523    -0.1846 C.2     
  27 N27           -1.3030    -2.0139     0.4970 N.am    
  28 C28           -2.5981    -2.6186     0.8184 C.3     
  29 C29           -0.0631    -2.6717     0.9166 C.3     
  30 O30           -2.2769    -0.3442    -0.5970 O.2     
  31 H31           -0.6892     1.7760     0.0126 H       
  32 H32            1.0551    -2.0286    -0.9275 H       
  33 H33            1.4506     2.8788    -0.3846 H       
  34 H34            4.1759     2.2748    -1.1607 H       
  35 H35            8.6064    -1.4350    -2.7797 H       
  36 H36            8.7646     1.1088    -2.4871 H       
  37 H37            5.0551    -2.5013    -2.0097 H       
  38 H38            4.6196    -6.9277    -4.6960 H       
  39 H39            4.6701    -8.3221    -2.6720 H       
  40 H40            5.6792    -7.4671    -0.5998 H       
  41 H41           -2.8959    -3.2893     0.0125 H       
  42 H42           -2.5154    -3.1818     1.7480 H       
  43 H43           -3.3465    -1.8346     0.9339 H       
  44 H44            0.7863    -2.0308     0.6801 H       
  45 H45           -0.0935    -2.8529     1.9910 H       
  46 H46            0.0405    -3.6209     0.3909 H       
@<TRIPOS>BOND
   1    1    2 ar
   2    1    6 ar
   3    1   31 1
   4    2    3 ar
   5    2   26 1
   6    3    4 ar
   7    3   32 1
   8    4    5 ar
   9    4    7 1
  10    5    6 ar
  11    5    9 1
  12    6   33 1
  13    7    8 2
  14    8    9 1
  15    8   10 1
  16    9   34 1
  17   10   11 1
  18   10   14 2
  19   11   12 2
  20   11   15 1
  21   12   13 1
  22   12   35 1
  23   13   14 1
  24   13   36 1
  25   15   16 am
  26   15   37 1
  27   16   17 1
  28   16   18 2
  29   17   22 ar
  30   17   23 ar
  31   19   20 ar
  32   19   23 ar
  33   19   38 1
  34   20   21 ar
  35   20   39 1
  36   21   22 ar
  37   21   40 1
  38   22   25 1
  39   23   24 1
  40   26   27 am
  41   26   30 2
  42   27   28 1
  43   27   29 1
  44   28   41 1
  45   28   42 1
  46   28   43 1
  47   29   44 1
  48   29   45 1
  49   29   46 1

#	End of record

