#	Name: ASD03540334
#	Creating user name:	WinNT
#	Creation time:	15. 06. 2019 20:43

#	Modifying user name:	WinNT
#	Modification time:	15. 06. 2019 20:43

#	Program:	/corina/corina34_cracker 3.40 0067  02.08.2006

@<TRIPOS>MOLECULE
ASD03540334
  58   61    0    0    0
SMALL
NO_CHARGES


@<TRIPOS>ATOM
   1 C1            -0.0161     1.3365     0.0094 C.2     
   2 N2             0.0021    -0.0041     0.0020 N.am    
   3 C3             1.1934    -0.7075    -0.0132 C.2     
   4 C4             2.3927    -0.0052    -0.0209 C.2     
   5 C5             2.3194     1.4731    -0.0123 C.2     
   6 N6             1.1112     2.0659     0.0025 N.am    
   7 C7             3.5132    -0.8389    -0.0357 C.2     
   8 C8             3.2261    -2.1513    -0.0396 C.2     
   9 S9             1.4880    -2.3901    -0.0245 S.3     
  10 C10            4.2202    -3.2270    -0.0552 C.2     
  11 O11            5.4074    -2.9586    -0.0657 O.2     
  12 N12            3.8203    -4.5141    -0.0579 N.am    
  13 C13            4.8145    -5.5900    -0.0735 C.3     
  14 C14            4.1013    -6.9436    -0.0734 C.3     
  15 C15            5.1240    -8.0503    -0.0894 C.ar    
  16 C16            5.6044    -8.5635     1.1001 C.ar    
  17 C17            6.5457    -9.5821     1.0847 C.ar    
  18 C18            7.0025   -10.0832    -0.1259 C.ar    
  19 C19            6.5191    -9.5668    -1.3123 C.ar    
  20 C20            5.5765    -8.5551    -1.2942 C.ar    
  21 O21            7.0202   -10.0882     2.2533 O.3     
  22 C22            7.9877   -11.1358     2.1613 C.3     
  23 C23            8.4006   -11.5738     3.5679 C.3     
  24 O24            3.3359     2.1421    -0.0183 O.2     
  25 O25           -1.0880     1.9102     0.0175 O.2     
  26 C26           -1.2652    -0.7390     0.0107 C.3     
  27 C27            1.0247     3.5284     0.0113 C.3     
  28 C28            1.0086     4.0221     1.4350 C.ar    
  29 C29            2.1963     4.3193     2.0769 C.ar    
  30 C30            2.1816     4.7722     3.3829 C.ar    
  31 C31            0.9792     4.9283     4.0468 C.ar    
  32 C32           -0.2085     4.6320     3.4046 C.ar    
  33 C33           -0.1940     4.1833     2.0972 C.ar    
  34 H34            4.5248    -0.4605    -0.0436 H       
  35 H35            2.8742    -4.7281    -0.0495 H       
  36 H36            5.4295    -5.5035    -0.9692 H       
  37 H37            5.4474    -5.5127     0.8106 H       
  38 H38            3.4862    -7.0301     0.8224 H       
  39 H39            3.4684    -7.0209    -0.9575 H       
  40 H40            5.2476    -8.1715     2.0411 H       
  41 H41            7.7357   -10.8761    -0.1405 H       
  42 H42            6.8746    -9.9563    -2.2548 H       
  43 H43            5.1962    -8.1560    -2.2228 H       
  44 H44            7.5561   -11.9833     1.6288 H       
  45 H45            8.8633   -10.7753     1.6214 H       
  46 H46            9.1386   -12.3728     3.4977 H       
  47 H47            8.8322   -10.7262     4.1003 H       
  48 H48            7.5250   -11.9343     4.1078 H       
  49 H49           -2.0950    -0.0323     0.0228 H       
  50 H50           -1.3306    -1.3610    -0.8820 H       
  51 H51           -1.3129    -1.3705     0.8978 H       
  52 H52            1.8867     3.9464    -0.5086 H       
  53 H53            0.1099     3.8413    -0.4921 H       
  54 H54            3.1357     4.1973     1.5582 H       
  55 H55            3.1095     5.0037     3.8846 H       
  56 H56            0.9677     5.2815     5.0674 H       
  57 H57           -1.1479     4.7537     3.9234 H       
  58 H58           -1.1222     3.9553     1.5942 H       
@<TRIPOS>BOND
   1    1    2 am
   2    1    6 am
   3    1   25 2
   4    2    3 1
   5    2   26 1
   6    3    4 2
   7    3    9 1
   8    4    5 1
   9    4    7 1
  10    5    6 am
  11    5   24 2
  12    6   27 1
  13    7    8 2
  14    7   34 1
  15    8    9 1
  16    8   10 1
  17   10   11 2
  18   10   12 am
  19   12   13 1
  20   12   35 1
  21   13   14 1
  22   13   36 1
  23   13   37 1
  24   14   15 1
  25   14   38 1
  26   14   39 1
  27   15   16 ar
  28   15   20 ar
  29   16   17 ar
  30   16   40 1
  31   17   18 ar
  32   17   21 1
  33   18   19 ar
  34   18   41 1
  35   19   20 ar
  36   19   42 1
  37   20   43 1
  38   21   22 1
  39   22   23 1
  40   22   44 1
  41   22   45 1
  42   23   46 1
  43   23   47 1
  44   23   48 1
  45   26   49 1
  46   26   50 1
  47   26   51 1
  48   27   28 1
  49   27   52 1
  50   27   53 1
  51   28   29 ar
  52   28   33 ar
  53   29   30 ar
  54   29   54 1
  55   30   31 ar
  56   30   55 1
  57   31   32 ar
  58   31   56 1
  59   32   33 ar
  60   32   57 1
  61   33   58 1

#	End of record

