#	Name: ASD03332106
#	Creating user name:	WinNT
#	Creation time:	15. 06. 2019 20:40

#	Modifying user name:	WinNT
#	Modification time:	15. 06. 2019 20:40

#	Program:	/corina/corina34_cracker 3.40 0067  02.08.2006

@<TRIPOS>MOLECULE
ASD03332106
  64   67    0    0    0
SMALL
NO_CHARGES


@<TRIPOS>ATOM
   1 C1            -0.9952     3.0759    -0.7224 C.2     
   2 N2            -1.5581     1.8410    -0.8077 N.pl3   
   3 C3            -0.5492     0.9253    -0.7356 C.2     
   4 N4             0.5876     1.5656    -0.5919 N.2     
   5 C5             0.3465     2.8952    -0.5768 C.2     
   6 C6             1.3552     3.9592    -0.4293 C.2     
   7 O7             1.0129     5.1262    -0.4313 O.2     
   8 N8             2.6572     3.6391    -0.2921 N.am    
   9 C9             3.6601     4.6969    -0.1455 C.3     
  10 C10            5.0193     4.1806    -0.6218 C.3     
  11 C11            5.4042     2.9386     0.1844 C.3     
  12 C12            3.7558     5.1009     1.3032 C.2     
  13 O13            3.3694     4.3460     2.1701 O.2     
  14 C14           -2.9920     1.5672    -0.9355 C.3     
  15 C15           -3.5810     2.4729    -2.0216 C.3     
  16 C16           -4.0051     3.8039    -1.4093 C.3     
  17 N17           -3.1106     4.1901    -0.3163 N.3     
  18 C18           -1.7344     4.3869    -0.7956 C.3     
  19 C19           -0.7097    -0.5429    -0.8069 C.ar    
  20 C20           -1.6831    -1.1793    -0.0352 C.ar    
  21 C21           -1.8287    -2.5504    -0.1055 C.ar    
  22 C22           -1.0088    -3.2962    -0.9415 C.ar    
  23 C23           -0.0413    -2.6702    -1.7089 C.ar    
  24 C24            0.1087    -1.2974    -1.6513 C.ar    
  25 C25            4.4647     6.6505     3.0449 C.3     
  26 N26            4.2709     6.3013     1.6354 N.am    
  27 C27           -3.6058     5.3908     0.3700 C.3     
  28 F28            1.0531    -0.6877    -2.4005 F       
  29 F29           -1.1553    -4.6377    -1.0061 F       
  30 F30           -2.7706    -3.1675     0.6410 F       
  31 C31            6.7634     2.4223    -0.2919 C.3     
  32 C32            6.6801     2.0611    -1.7763 C.3     
  33 C33            6.2952     3.3032    -2.5826 C.3     
  34 C34            4.9359     3.8194    -2.1063 C.3     
  35 H35            2.9303     2.7083    -0.2906 H       
  36 H36            3.3687     5.5594    -0.7448 H       
  37 H37            5.7728     4.9550    -0.4781 H       
  38 H38            5.4636     3.1959     1.2420 H       
  39 H39            4.6507     2.1642     0.0407 H       
  40 H40           -3.1404     0.5233    -1.2116 H       
  41 H41           -3.4874     1.7679     0.0144 H       
  42 H42           -2.8303     2.6509    -2.7915 H       
  43 H43           -4.4484     1.9865    -2.4680 H       
  44 H44           -3.9827     4.5751    -2.1793 H       
  45 H45           -5.0211     3.7132    -1.0249 H       
  46 H46           -1.2321     5.1240    -0.1691 H       
  47 H47           -1.7544     4.7369    -1.8276 H       
  48 H48           -2.3210    -0.6003     0.6161 H       
  49 H49            0.5942    -3.2551    -2.3574 H       
  50 H50            4.8877     7.6526     3.1160 H       
  51 H51            3.5050     6.6238     3.5611 H       
  52 H52            5.1454     5.9351     3.5062 H       
  53 H53            4.5132     6.9340     0.9412 H       
  54 H54           -4.5952     5.1919     0.7819 H       
  55 H55           -2.9228     5.6557     1.1771 H       
  56 H56           -3.6668     6.2158    -0.3397 H       
  57 H57            7.5169     3.1967    -0.1482 H       
  58 H58            7.0377     1.5375     0.2825 H       
  59 H59            7.6484     1.6933    -2.1157 H       
  60 H60            5.9266     1.2867    -1.9201 H       
  61 H61            7.0486     4.0776    -2.4389 H       
  62 H62            6.2358     3.0458    -3.6401 H       
  63 H63            4.1824     3.0450    -2.2500 H       
  64 H64            4.6617     4.7043    -2.6807 H       
@<TRIPOS>BOND
   1    1    2 1
   2    1    5 2
   3    1   18 1
   4    2    3 1
   5    2   14 1
   6    3    4 2
   7    3   19 1
   8    4    5 1
   9    5    6 1
  10    6    7 2
  11    6    8 am
  12    8    9 1
  13    8   35 1
  14    9   10 1
  15    9   12 1
  16    9   36 1
  17   10   11 1
  18   10   34 1
  19   10   37 1
  20   11   31 1
  21   11   38 1
  22   11   39 1
  23   12   13 2
  24   12   26 am
  25   14   15 1
  26   14   40 1
  27   14   41 1
  28   15   16 1
  29   15   42 1
  30   15   43 1
  31   16   17 1
  32   16   44 1
  33   16   45 1
  34   17   18 1
  35   17   27 1
  36   18   46 1
  37   18   47 1
  38   19   20 ar
  39   19   24 ar
  40   20   21 ar
  41   20   48 1
  42   21   22 ar
  43   21   30 1
  44   22   23 ar
  45   22   29 1
  46   23   24 ar
  47   23   49 1
  48   24   28 1
  49   25   26 1
  50   25   50 1
  51   25   51 1
  52   25   52 1
  53   26   53 1
  54   27   54 1
  55   27   55 1
  56   27   56 1
  57   31   32 1
  58   31   57 1
  59   31   58 1
  60   32   33 1
  61   32   59 1
  62   32   60 1
  63   33   34 1
  64   33   61 1
  65   33   62 1
  66   34   63 1
  67   34   64 1

#	End of record

