#	Name: ASD01911986
#	Creating user name:	WinNT
#	Creation time:	15. 06. 2019 19:58

#	Modifying user name:	WinNT
#	Modification time:	15. 06. 2019 19:58

#	Program:	/corina/corina34_cracker 3.40 0067  02.08.2006

@<TRIPOS>MOLECULE
ASD01911986
  39   41    0    0    0
SMALL
NO_CHARGES


@<TRIPOS>ATOM
   1 C1             0.1300     1.3789     0.0519 C.ar    
   2 C2             0.1178    -0.0139     0.0355 C.ar    
   3 C3             1.3391    -0.6837     0.0192 C.ar    
   4 N4             2.4576     0.0220     0.0198 N.ar    
   5 C5             2.4267     1.3395     0.0356 C.ar    
   6 N6             1.2922     2.0101     0.0513 N.ar    
   7 N7            -1.0877    -0.7206     0.0360 N.pl3   
   8 C8            -1.0786    -2.1203     0.0194 C.ar    
   9 C9            -1.0741    -4.1851    -1.2101 C.ar    
  10 C10           -1.0608    -4.8934    -0.0215 C.ar    
  11 C11           -1.0618    -4.2161     1.1927 C.ar    
  12 C12           -1.0710    -2.8286     1.2121 C.ar    
  13 N13           -1.0483    -4.9338     2.3955 N.am    
  14 C14           -1.5468    -4.3779     3.5175 C.2     
  15 C15           -1.6139    -5.1663     4.7661 C.ar    
  16 O16           -1.9414    -3.2281     3.5027 O.2     
  17 C17           -2.1297    -4.5936     5.9297 C.ar    
  18 C18           -1.0827    -2.8021    -1.1932 C.ar    
  19 C19           -2.3612     0.0034     0.0538 C.3     
  20 C20           -2.1897    -5.3345     7.0922 C.ar    
  21 C21           -1.7402    -6.6425     7.1067 C.ar    
  22 C22           -1.2271    -7.2174     5.9559 C.ar    
  23 C23           -1.1670    -6.4887     4.7849 C.ar    
  24 Cl24          -0.6654    -8.8598     5.9841 Cl      
  25 F25           -1.0957    -2.1129    -2.3551 F       
  26 F26           -1.0524    -6.2443    -0.0409 F       
  27 H27           -0.7958     1.9350     0.0604 H       
  28 H28            1.3720    -1.7632     0.0066 H       
  29 H29            3.3584     1.8857     0.0360 H       
  30 H30           -1.0729    -4.7128    -2.1524 H       
  31 H31           -1.0719    -2.3010     2.1545 H       
  32 H32           -0.6801    -5.8308     2.4209 H       
  33 H33           -2.4808    -3.5723     5.9203 H       
  34 H34           -2.6845     0.1950    -0.9694 H       
  35 H35           -3.1132    -0.5968     0.5660 H       
  36 H36           -2.2334     0.9505     0.5779 H       
  37 H37           -2.5883    -4.8919     7.9930 H       
  38 H38           -1.7891    -7.2178     8.0194 H       
  39 H39           -0.7671    -6.9377     3.8877 H       
@<TRIPOS>BOND
   1    1    2 ar
   2    1    6 ar
   3    1   27 1
   4    2    3 ar
   5    2    7 1
   6    3    4 ar
   7    3   28 1
   8    4    5 ar
   9    5    6 ar
  10    5   29 1
  11    7    8 1
  12    7   19 1
  13    8   18 ar
  14    8   12 ar
  15    9   10 ar
  16    9   18 ar
  17    9   30 1
  18   10   11 ar
  19   10   26 1
  20   11   12 ar
  21   11   13 1
  22   12   31 1
  23   13   14 am
  24   13   32 1
  25   14   15 1
  26   14   16 2
  27   15   17 ar
  28   15   23 ar
  29   17   20 ar
  30   17   33 1
  31   18   25 1
  32   19   34 1
  33   19   35 1
  34   19   36 1
  35   20   21 ar
  36   20   37 1
  37   21   22 ar
  38   21   38 1
  39   22   23 ar
  40   22   24 1
  41   23   39 1

#	End of record

