#	Name: ASD02038350
#	Creating user name:	WinNT
#	Creation time:	15. 06. 2019 20:16

#	Modifying user name:	WinNT
#	Modification time:	15. 06. 2019 20:16

#	Program:	/corina/corina34_cracker 3.40 0067  02.08.2006

@<TRIPOS>MOLECULE
ASD02038350
  45   46    0    0    0
SMALL
NO_CHARGES


@<TRIPOS>ATOM
   1 N1            -0.0201     1.3961     0.0101 N.am    
   2 C2             1.8197    -8.3813    -1.9191 C.3     
   3 C3             2.7528    -8.9760    -2.9758 C.3     
   4 S4             2.6982   -10.7867    -2.8806 S.3     
   5 N5             1.8638    -6.9190    -1.9960 N.am    
   6 C6             1.1167    -6.1771    -1.1547 C.2     
   7 C7             1.1620    -4.6729    -1.2338 C.3     
   8 O8             0.4078    -6.7201    -0.3340 O.2     
   9 O9             0.2905    -4.1175    -0.2469 O.3     
  10 C10            0.2139    -2.7611    -0.1838 C.ar    
  11 C11           -0.6129    -2.1563     0.7512 C.ar    
  12 C12           -0.6910    -0.7790     0.8162 C.ar    
  13 C13            0.0587     0.0004    -0.0548 C.ar    
  14 C14            0.8863    -0.6059    -0.9906 C.ar    
  15 C15            0.9671    -1.9833    -1.0508 C.ar    
  16 C16            3.8151   -11.2842    -4.1493 C.ar    
  17 C17            4.0432   -12.6344    -4.3858 C.ar    
  18 C18            4.9193   -13.0213    -5.3818 C.ar    
  19 C19            5.5699   -12.0643    -6.1435 C.ar    
  20 C20            5.3445   -10.7195    -5.9092 C.ar    
  21 C21            4.4651   -10.3272    -4.9190 C.ar    
  22 Cl22           5.2054   -14.7076    -5.6786 Cl      
  23 Cl23           6.6705   -12.5533    -7.3938 Cl      
  24 S24           -0.8669     2.2320    -1.1416 S.o2    
  25 O25           -0.7448     3.5920    -0.7482 O.2     
  26 O26           -0.3275     1.7746    -2.3741 O.2     
  27 C27           -2.5786     1.6641    -0.9461 C.3     
  28 H28            0.4180     1.8735     0.7319 H       
  29 H29            0.8009    -8.7241    -2.0998 H       
  30 H30            2.1410    -8.7029    -0.9284 H       
  31 H31            2.4316    -8.6544    -3.9665 H       
  32 H32            3.7716    -8.6332    -2.7952 H       
  33 H33            2.4307    -6.4848    -2.6525 H       
  34 H34            2.1808    -4.3301    -1.0532 H       
  35 H35            0.8408    -4.3513    -2.2245 H       
  36 H36           -1.1959    -2.7627     1.4286 H       
  37 H37           -1.3354    -0.3082     1.5439 H       
  38 H38            1.4697    -0.0005    -1.6685 H       
  39 H39            1.6110    -2.4551    -1.7783 H       
  40 H40            3.5366   -13.3805    -3.7916 H       
  41 H41            5.8533    -9.9757    -6.5043 H       
  42 H42            4.2898    -9.2772    -4.7370 H       
  43 H43           -2.8952     1.8132     0.0862 H       
  44 H44           -3.2284     2.2330    -1.6112 H       
  45 H45           -2.6408     0.6049    -1.1958 H       
@<TRIPOS>BOND
   1    1   13 1
   2    1   24 am
   3    1   28 1
   4    2    3 1
   5    2    5 1
   6    2   29 1
   7    2   30 1
   8    3    4 1
   9    3   31 1
  10    3   32 1
  11    4   16 1
  12    5    6 am
  13    5   33 1
  14    6    8 2
  15    6    7 1
  16    7    9 1
  17    7   34 1
  18    7   35 1
  19    9   10 1
  20   10   11 ar
  21   10   15 ar
  22   11   12 ar
  23   11   36 1
  24   12   13 ar
  25   12   37 1
  26   13   14 ar
  27   14   15 ar
  28   14   38 1
  29   15   39 1
  30   16   17 ar
  31   16   21 ar
  32   17   18 ar
  33   17   40 1
  34   18   19 ar
  35   18   22 1
  36   19   20 ar
  37   19   23 1
  38   20   21 ar
  39   20   41 1
  40   21   42 1
  41   24   25 2
  42   24   26 2
  43   24   27 1
  44   27   43 1
  45   27   44 1
  46   27   45 1

#	End of record

