#	Name: ASD07300257
#	Creating user name:	WinNT
#	Creation time:	15. 06. 2019 21:09

#	Modifying user name:	WinNT
#	Modification time:	15. 06. 2019 21:09

#	Program:	/corina/corina34_cracker 3.40 0067  02.08.2006

@<TRIPOS>MOLECULE
ASD07300257
  51   55    0    0    0
SMALL
NO_CHARGES


@<TRIPOS>ATOM
   1 C1            -1.7989     0.7403     0.8694 C.ar    
   2 C2            -1.0953    -0.4051     0.4895 C.ar    
   3 C3            -1.2909    -1.5876     1.1897 C.ar    
   4 C4            -2.1863    -1.5828     2.2483 C.ar    
   5 C5            -2.8491    -0.4123     2.5699 C.ar    
   6 N6            -2.6442     0.6980     1.8874 N.ar    
   7 C7            -0.5128     1.2492    -0.8698 C.2     
   8 N8            -1.4097     1.7537    -0.0021 N.am    
   9 N9            -0.2984    -0.0516    -0.5952 N.am    
  10 O10            0.0258     1.8748    -1.7638 O.2     
  11 C11           -1.8741     3.0770     0.0201 C.ar    
  12 C12           -3.1884     3.3577    -0.3282 C.ar    
  13 C13           -3.6451     4.6605    -0.3063 C.ar    
  14 C14           -2.7907     5.6892     0.0638 C.ar    
  15 C15           -1.4770     5.4093     0.4115 C.ar    
  16 C16           -1.0211     4.1061     0.3958 C.ar    
  17 O17           -3.2408     6.9719     0.0852 O.3     
  18 C18           -5.1998     8.6149     2.5090 C.ar    
  19 C19           -5.1568     7.2894     2.9774 C.ar    
  20 C20           -5.8297     6.9667     4.1589 C.ar    
  21 C21           -6.5117     7.9734     4.8176 C.ar    
  22 C22           -6.5085     9.2558     4.2946 C.ar    
  23 N23           -5.8676     9.5394     3.1786 N.ar    
  24 C24           -4.0044     7.3596     1.1323 C.2     
  25 N25           -4.4624     8.6284     1.3410 N.pl3   
  26 N26           -4.4093     6.5753     2.0974 N.2     
  27 C27           -4.2173     9.7908     0.4837 C.3     
  28 C28           -0.5502    -2.8436     0.8089 C.3     
  29 C29            0.6112    -0.9432    -1.3190 C.3     
  30 C30           -0.1402    -1.6114    -2.4722 C.3     
  31 O31           -3.3453     1.8728     2.2525 O.3     
  32 H32           -2.3645    -2.4842     2.8159 H       
  33 H33           -3.5468    -0.4072     3.3943 H       
  34 H34           -3.8534     2.5571    -0.6166 H       
  35 H35           -4.6674     4.8790    -0.5775 H       
  36 H36           -0.8122     6.2104     0.6991 H       
  37 H37            0.0001     3.8877     0.6711 H       
  38 H38           -5.8177     5.9588     4.5468 H       
  39 H39           -7.0434     7.7610     5.7334 H       
  40 H40           -7.0426    10.0393     4.8116 H       
  41 H41           -3.3085    10.2971     0.8090 H       
  42 H42           -4.1004     9.4623    -0.5491 H       
  43 H43           -5.0607    10.4778     0.5532 H       
  44 H44            0.3895    -2.8921     1.3591 H       
  45 H45           -1.1599    -3.7133     1.0536 H       
  46 H46           -0.3444    -2.8336    -0.2615 H       
  47 H47            1.4465    -0.3661    -1.7156 H       
  48 H48            0.9878    -1.7076    -0.6394 H       
  49 H49           -0.9755    -2.1885    -2.0756 H       
  50 H50           -0.5168    -0.8470    -3.1518 H       
  51 H51            0.5366    -2.2748    -3.0107 H       
@<TRIPOS>BOND
   1    1    2 ar
   2    1    6 ar
   3    1    8 1
   4    2    3 ar
   5    2    9 1
   6    3    4 ar
   7    3   28 1
   8    4    5 ar
   9    4   32 1
  10    5    6 ar
  11    5   33 1
  12    6   31 1
  13    7    8 am
  14    7    9 am
  15    7   10 2
  16    8   11 1
  17    9   29 1
  18   11   12 ar
  19   11   16 ar
  20   12   13 ar
  21   12   34 1
  22   13   14 ar
  23   13   35 1
  24   14   15 ar
  25   14   17 1
  26   15   16 ar
  27   15   36 1
  28   16   37 1
  29   17   24 1
  30   18   19 ar
  31   18   23 ar
  32   18   25 1
  33   19   20 ar
  34   19   26 1
  35   20   21 ar
  36   20   38 1
  37   21   22 ar
  38   21   39 1
  39   22   23 ar
  40   22   40 1
  41   24   25 1
  42   24   26 2
  43   25   27 1
  44   27   41 1
  45   27   42 1
  46   27   43 1
  47   28   44 1
  48   28   45 1
  49   28   46 1
  50   29   30 1
  51   29   47 1
  52   29   48 1
  53   30   49 1
  54   30   50 1
  55   30   51 1

#	End of record

