#	Name: ASD01148561
#	Creating user name:	WinNT
#	Creation time:	15. 06. 2019 19:02

#	Modifying user name:	WinNT
#	Modification time:	15. 06. 2019 19:02

#	Program:	/corina/corina34_cracker 3.40 0067  02.08.2006

@<TRIPOS>MOLECULE
ASD01148561
  55   59    0    0    0
SMALL
NO_CHARGES


@<TRIPOS>ATOM
   1 C1            -0.0169     1.4364    -0.0252 C.ar    
   2 C2             0.0192     0.0536    -0.0359 C.ar    
   3 C3            -1.1605    -0.6687    -0.0202 C.ar    
   4 C4            -2.3757    -0.0077     0.0061 C.ar    
   5 C5            -2.4112     1.3740     0.0167 C.ar    
   6 C6            -1.2327     2.0962     0.0064 C.ar    
   7 C7            -3.7351     2.0932     0.0454 C.3     
   8 O8            -4.7244     1.3251     0.7600 O.3     
   9 C9            -3.6497     3.3763     0.9060 C.3     
  10 C10           -4.1226     2.8945     2.2643 C.2     
  11 N11           -4.7049     1.7514     2.1080 N.2     
  12 C12           -3.9476     3.6065     3.5418 C.ar    
  13 C13           -4.4544     3.0257     4.7827 C.ar    
  14 C14           -3.2949     4.8310     3.5753 C.ar    
  15 C15           -3.1161     5.5212     4.7611 C.ar    
  16 C16           -3.5817     5.0189     5.9683 C.ar    
  17 C17           -4.2716     3.7316     5.9954 C.ar    
  18 C18           -3.3764     5.7771     7.2160 C.2     
  19 O19           -3.8770     5.3876     8.2535 O.2     
  20 N20           -2.6339     6.9018     7.2066 N.am    
  21 C21           -4.2112     2.4148    -1.3727 C.3     
  22 F22           -4.3447     1.2274    -2.1003 F       
  23 F23           -5.4476     3.0667    -1.3130 F       
  24 F24           -3.2765     3.2444    -2.0015 F       
  25 Cl25          -1.1161    -2.4040    -0.0342 Cl      
  26 Cl26           1.4630     2.3437    -0.0442 Cl      
  27 C27           -2.4299     7.6552     8.4464 C.3     
  28 C28           -1.5703     8.8608     8.1659 C.ar    
  29 N29           -0.2573     8.7399     8.1687 N.ar    
  30 C30            0.5343     9.7671     7.9287 C.ar    
  31 C31            0.0091    11.0175     7.6639 C.ar    
  32 C32           -1.3676    11.1836     7.6524 C.ar    
  33 C33           -2.1675    10.0794     7.9032 C.ar    
  34 C34           -5.1140     1.7900     4.7971 C.ar    
  35 C35           -4.7575     3.1862     7.1904 C.ar    
  36 C36           -5.5706     1.2844     5.9779 C.ar    
  37 C37           -5.3953     1.9814     7.1703 C.ar    
  38 H38            0.9680    -0.4618    -0.0568 H       
  39 H39           -3.2968    -0.5715     0.0179 H       
  40 H40           -1.2610     3.1758     0.0147 H       
  41 H41           -2.6231     3.7385     0.9598 H       
  42 H42           -4.3136     4.1483     0.5166 H       
  43 H43           -2.9181     5.2541     2.6558 H       
  44 H44           -2.6028     6.4713     4.7470 H       
  45 H45           -2.2345     7.2125     6.3790 H       
  46 H46           -3.3943     7.9796     8.8373 H       
  47 H47           -1.9354     7.0194     9.1808 H       
  48 H48            1.6054     9.6295     7.9396 H       
  49 H49            0.6625    11.8550     7.4688 H       
  50 H50           -1.8063    12.1492     7.4489 H       
  51 H51           -3.2435    10.1720     7.9017 H       
  52 H52           -5.2601     1.2415     3.8783 H       
  53 H53           -4.6275     3.7167     8.1221 H       
  54 H54           -6.0791     0.3316     5.9879 H       
  55 H55           -5.7696     1.5617     8.0924 H       
@<TRIPOS>BOND
   1    1    2 ar
   2    1   26 1
   3    1    6 ar
   4    2    3 ar
   5    2   38 1
   6    3    4 ar
   7    3   25 1
   8    4    5 ar
   9    4   39 1
  10    5    6 ar
  11    5    7 1
  12    6   40 1
  13    7    8 1
  14    7    9 1
  15    7   21 1
  16    8   11 1
  17    9   10 1
  18    9   41 1
  19    9   42 1
  20   10   11 2
  21   10   12 1
  22   12   13 ar
  23   12   14 ar
  24   13   34 ar
  25   13   17 ar
  26   14   15 ar
  27   14   43 1
  28   15   16 ar
  29   15   44 1
  30   16   17 ar
  31   16   18 1
  32   17   35 ar
  33   18   19 2
  34   18   20 am
  35   20   27 1
  36   20   45 1
  37   21   22 1
  38   21   23 1
  39   21   24 1
  40   27   28 1
  41   27   46 1
  42   27   47 1
  43   28   29 ar
  44   28   33 ar
  45   29   30 ar
  46   30   31 ar
  47   30   48 1
  48   31   32 ar
  49   31   49 1
  50   32   33 ar
  51   32   50 1
  52   33   51 1
  53   34   36 ar
  54   34   52 1
  55   35   37 ar
  56   35   53 1
  57   36   37 ar
  58   36   54 1
  59   37   55 1

#	End of record

