#	Name: ASD01410035
#	Creating user name:	WinNT
#	Creation time:	15. 06. 2019 19:16

#	Modifying user name:	WinNT
#	Modification time:	15. 06. 2019 19:16

#	Program:	/corina/corina34_cracker 3.40 0067  02.08.2006

@<TRIPOS>MOLECULE
ASD01410035
  41   42    0    0    0
SMALL
NO_CHARGES


@<TRIPOS>ATOM
   1 C1            -0.0265     1.4002    -0.0670 C.ar    
   2 C2            -0.0037     0.0236    -0.0692 C.ar    
   3 C3            -1.2058    -0.6940    -0.0481 C.ar    
   4 C4            -2.4265     0.0000    -0.0248 C.ar    
   5 C5            -2.4276     1.3869    -0.0229 C.ar    
   6 C6            -1.2340     2.0804    -0.0386 C.ar    
   7 O7            -3.5981    -0.6824    -0.0047 O.3     
   8 C8            -4.7993     0.0914     0.0185 C.3     
   9 C9            -5.9908    -0.8311     0.0386 C.2     
  10 N10           -7.2379    -0.3207     0.0621 N.am    
  11 C11           -8.3390    -1.1680    -0.0326 C.ar    
  12 C12           -8.2756    -2.3088    -0.8209 C.ar    
  13 C13           -9.3684    -3.1475    -0.9134 C.ar    
  14 C14          -10.5343    -2.8590    -0.2230 C.ar    
  15 C15          -10.6161    -1.7310     0.5646 C.ar    
  16 C16           -9.5166    -0.8759     0.6732 C.ar    
  17 C17           -9.5968     0.3318     1.5141 C.2     
  18 O18          -10.7639     0.6716     2.0958 O.3     
  19 O19           -8.6105     1.0212     1.6829 O.2     
  20 O20           -5.8274    -2.0328     0.0336 O.2     
  21 C21           -1.1903    -2.1618    -0.0509 C.2     
  22 C22            0.1225    -2.9014    -0.0765 C.3     
  23 O23           -2.2341    -2.7794    -0.0325 O.2     
  24 C24            1.2680     2.1714    -0.0892 C.3     
  25 H25            0.9398    -0.5018    -0.0876 H       
  26 H26           -3.3637     1.9253    -0.0054 H       
  27 H27           -1.2412     3.1604    -0.0371 H       
  28 H28           -4.8103     0.7186     0.9098 H       
  29 H29           -4.8427     0.7216    -0.8698 H       
  30 H30           -7.3686     0.6369     0.1449 H       
  31 H31           -7.3706    -2.5403    -1.3628 H       
  32 H32           -9.3141    -4.0338    -1.5281 H       
  33 H33          -11.3837    -3.5213    -0.3028 H       
  34 H34          -11.5275    -1.5106     1.1004 H       
  35 H35          -10.7674     1.4721     2.6382 H       
  36 H36            0.9433    -2.1843    -0.0905 H       
  37 H37            0.2034    -3.5289     0.8111 H       
  38 H38            0.1704    -3.5259    -0.9685 H       
  39 H39            1.5617     2.3587    -1.1220 H       
  40 H40            1.1340     3.1213     0.4284 H       
  41 H41            2.0447     1.5921     0.4100 H       
@<TRIPOS>BOND
   1    1    2 ar
   2    1   24 1
   3    1    6 ar
   4    2    3 ar
   5    2   25 1
   6    3    4 ar
   7    3   21 1
   8    4    5 ar
   9    4    7 1
  10    5    6 ar
  11    5   26 1
  12    6   27 1
  13    7    8 1
  14    8    9 1
  15    8   28 1
  16    8   29 1
  17    9   10 am
  18    9   20 2
  19   10   11 1
  20   10   30 1
  21   11   12 ar
  22   11   16 ar
  23   12   13 ar
  24   12   31 1
  25   13   14 ar
  26   13   32 1
  27   14   15 ar
  28   14   33 1
  29   15   16 ar
  30   15   34 1
  31   16   17 1
  32   17   18 1
  33   17   19 2
  34   18   35 1
  35   21   22 1
  36   21   23 2
  37   22   36 1
  38   22   37 1
  39   22   38 1
  40   24   39 1
  41   24   40 1
  42   24   41 1

#	End of record

