#	Name: ASD01028213
#	Creating user name:	WinNT
#	Creation time:	15. 06. 2019 18:56

#	Modifying user name:	WinNT
#	Modification time:	15. 06. 2019 18:56

#	Program:	/corina/corina34_cracker 3.40 0067  02.08.2006

@<TRIPOS>MOLECULE
ASD01028213
  43   47    0    0    0
SMALL
NO_CHARGES


@<TRIPOS>ATOM
   1 C1            -0.0165     1.3658     0.0096 C.ar    
   2 C2             0.0021    -0.0041     0.0020 C.ar    
   3 C3             1.1871     2.0786     0.0019 C.ar    
   4 N4             2.3453     1.4655    -0.0129 N.ar    
   5 C5             2.4265     0.1343    -0.0208 C.ar    
   6 C6             1.2509    -0.6527    -0.0134 C.ar    
   7 C7             3.6823    -0.5215    -0.0362 C.ar    
   8 C8             3.6925    -1.9066    -0.0433 C.ar    
   9 C9             2.4925    -2.6050    -0.0352 C.ar    
  10 N10            1.3341    -1.9873    -0.0204 N.ar    
  11 N11            4.8661     0.2018    -0.0444 N.pl3   
  12 C12            6.1526    -0.4989    -0.0603 C.3     
  13 C13            7.2733     0.5086    -0.0666 C.2     
  14 N14            7.8769     1.0364     1.0207 N.pl3   
  15 C15            8.8321     1.9015     0.5416 C.2     
  16 N16            8.7618     1.8562    -0.7787 N.2     
  17 N17            7.8416     1.0260    -1.1272 N.2     
  18 N18            7.7113     0.8689     2.3969 N.2     
  19 C19            8.4642     1.5342     3.2449 C.2     
  20 C20            9.4527     2.4296     2.7843 C.2     
  21 C21            9.6380     2.6130     1.4504 C.2     
  22 C22            8.2718     1.3415     4.7033 C.ar    
  23 C23            7.2984     0.4602     5.1699 C.ar    
  24 C24            9.0678     2.0368     5.6116 C.ar    
  25 C25            8.8848     1.8534     6.9672 C.ar    
  26 C26            7.9138     0.9810     7.4248 C.ar    
  27 C27            7.1241     0.2845     6.5277 C.ar    
  28 O28           -1.2013     2.0306     0.0188 O.3     
  29 H29           -0.9171    -0.5710     0.0081 H       
  30 H30            1.1613     3.1582     0.0079 H       
  31 H31            4.6307    -2.4414    -0.0554 H       
  32 H32            2.5125    -3.6848    -0.0412 H       
  33 H33            4.8421     1.1715    -0.0396 H       
  34 H34            6.2346    -1.1281     0.8259 H       
  35 H35            6.2171    -1.1197    -0.9539 H       
  36 H36           10.0634     2.9694     3.4928 H       
  37 H37           10.3933     3.2969     1.0923 H       
  38 H38            6.6813    -0.0840     4.4704 H       
  39 H39            9.8267     2.7177     5.2553 H       
  40 H40            9.5011     2.3918     7.6720 H       
  41 H41            7.7745     0.8399     8.4865 H       
  42 H42            6.3672    -0.3951     6.8905 H       
  43 H43           -1.5401     2.2182     0.9048 H       
@<TRIPOS>BOND
   1    1    2 ar
   2    1    3 ar
   3    1   28 1
   4    2    6 ar
   5    2   29 1
   6    3    4 ar
   7    3   30 1
   8    4    5 ar
   9    5    6 ar
  10    5    7 ar
  11    6   10 ar
  12    7    8 ar
  13    7   11 1
  14    8    9 ar
  15    8   31 1
  16    9   10 ar
  17    9   32 1
  18   11   12 1
  19   11   33 1
  20   12   13 1
  21   12   34 1
  22   12   35 1
  23   13   14 1
  24   13   17 2
  25   14   15 1
  26   14   18 1
  27   15   16 2
  28   15   21 1
  29   16   17 1
  30   18   19 2
  31   19   20 1
  32   19   22 1
  33   20   21 2
  34   20   36 1
  35   21   37 1
  36   22   23 ar
  37   22   24 ar
  38   23   27 ar
  39   23   38 1
  40   24   25 ar
  41   24   39 1
  42   25   26 ar
  43   25   40 1
  44   26   27 ar
  45   26   41 1
  46   27   42 1
  47   28   43 1

#	End of record

