#	Name: ASD01230364
#	Creating user name:	WinNT
#	Creation time:	15. 06. 2019 19:14

#	Modifying user name:	WinNT
#	Modification time:	15. 06. 2019 19:14

#	Program:	/corina/corina34_cracker 3.40 0067  02.08.2006

@<TRIPOS>MOLECULE
ASD01230364
  30   32    0    0    0
SMALL
NO_CHARGES


@<TRIPOS>ATOM
   1 O1             3.4542    -3.9537     0.0001 O.2     
   2 O2             2.4042     2.4698     1.3351 O.3     
   3 N3             5.3982    -2.9038    -0.2260 N.am    
   4 N4             3.3478     1.7509     1.5967 N.2     
   5 N5             1.5581     2.0014     0.5999 N.2     
   6 C6             7.8514    -2.9943    -1.6310 C.3     
   7 C7             6.9801    -4.2467    -1.5100 C.3     
   8 C8             6.9575    -1.7546    -1.7101 C.3     
   9 C9             6.1516    -4.1652    -0.2240 C.3     
  10 C10            6.1287    -1.6449    -0.4263 C.3     
  11 C11            4.0616    -2.9021    -0.0530 C.2     
  12 C12            3.3343    -1.6215     0.0723 C.ar    
  13 C13            3.8721    -0.6229     0.8545 C.ar    
  14 C14            2.1109    -1.4607    -0.6131 C.ar    
  15 C15            3.1938     0.6022     0.9846 C.ar    
  16 C16            1.9062     0.7841     0.2681 C.ar    
  17 C17            1.3981    -0.3119    -0.5390 C.ar    
  18 H18            8.5012    -2.9184    -0.7592 H       
  19 H19            8.4601    -3.0612    -2.5327 H       
  20 H20            6.3126    -4.3099    -2.3694 H       
  21 H21            7.6166    -5.1309    -1.4773 H       
  22 H22            7.5779    -0.8651    -1.8197 H       
  23 H23            6.2902    -1.8413    -2.5676 H       
  24 H24            6.8150    -4.1932     0.6404 H       
  25 H25            5.4580    -5.0050    -0.1824 H       
  26 H26            5.4201    -0.8218    -0.5181 H       
  27 H27            6.7902    -1.4674     0.4216 H       
  28 H28            4.8108    -0.7800     1.3648 H       
  29 H29            1.7338    -2.2754    -1.2135 H       
  30 H30            0.4647    -0.2116    -1.0730 H       
@<TRIPOS>BOND
   1    1   11 2
   2    2    4 1
   3    2    5 1
   4    3    9 1
   5    3   10 1
   6    3   11 am
   7    4   15 2
   8    5   16 2
   9    6    7 1
  10    6    8 1
  11    6   18 1
  12    6   19 1
  13    7    9 1
  14    7   20 1
  15    7   21 1
  16    8   10 1
  17    8   22 1
  18    8   23 1
  19    9   24 1
  20    9   25 1
  21   10   26 1
  22   10   27 1
  23   11   12 1
  24   12   13 ar
  25   12   14 ar
  26   13   15 ar
  27   13   28 1
  28   14   17 ar
  29   14   29 1
  30   15   16 ar
  31   16   17 ar
  32   17   30 1

#	End of record

