#	Name: ASD03090119
#	Creating user name:	WinNT
#	Creation time:	15. 06. 2019 20:28

#	Modifying user name:	WinNT
#	Modification time:	15. 06. 2019 20:28

#	Program:	/corina/corina34_cracker 3.40 0067  02.08.2006

@<TRIPOS>MOLECULE
ASD03090119
  20   21    0    0    0
SMALL
NO_CHARGES


@<TRIPOS>ATOM
   1 N1            -0.0165     1.3642     0.0095 N.pl3   
   2 C2             0.0021    -0.0041     0.0020 C.2     
   3 C3             1.2696    -0.4449    -0.0124 C.2     
   4 C4             2.1334     0.7392    -0.0143 C.ar    
   5 C5             3.5137     0.9292    -0.0265 C.ar    
   6 C6             4.0253     2.2233    -0.0244 C.ar    
   7 C7             3.1547     3.3226    -0.0097 C.ar    
   8 C8             1.8031     3.1391     0.0026 C.ar    
   9 C9             1.2695     1.8511    -0.0001 C.ar    
  10 Br10           0.6491     4.6370     0.0236 Br      
  11 C11            5.4419     2.4327    -0.0368 C.1     
  12 N12            6.5656     2.5987    -0.0466 N.1     
  13 C13           -1.2201    -0.8856     0.0097 C.3     
  14 F14           -2.3699    -0.0887     0.0251 F       
  15 F15           -1.2239    -1.6876    -1.1366 F       
  16 F16           -1.2013    -1.6990     1.1478 F       
  17 H17           -0.8183     1.9100     0.0165 H       
  18 H18            1.5917    -1.4757    -0.0205 H       
  19 H19            4.1805     0.0797    -0.0370 H       
  20 H20            3.5584     4.3243    -0.0079 H       
@<TRIPOS>BOND
   1    1    2 1
   2    1    9 1
   3    1   17 1
   4    2    3 2
   5    2   13 1
   6    3    4 1
   7    3   18 1
   8    4    5 ar
   9    4    9 ar
  10    5    6 ar
  11    5   19 1
  12    6    7 ar
  13    6   11 1
  14    7    8 ar
  15    7   20 1
  16    8    9 ar
  17    8   10 1
  18   11   12 3
  19   13   14 1
  20   13   15 1
  21   13   16 1

#	End of record

