#	Name: ASD02198051
#	Creating user name:	WinNT
#	Creation time:	15. 06. 2019 20:18

#	Modifying user name:	WinNT
#	Modification time:	15. 06. 2019 20:18

#	Program:	/corina/corina34_cracker 3.40 0067  02.08.2006

@<TRIPOS>MOLECULE
ASD02198051
  50   53    0    0    0
SMALL
NO_CHARGES


@<TRIPOS>ATOM
   1 C1            -0.0134     1.3782     0.0899 C.2     
   2 C2             0.0023     0.0012     0.0300 C.2     
   3 C3            -1.1890    -0.7934     0.0176 C.1     
   4 S4             1.5724     2.0045     0.0878 S.3     
   5 C5             2.2771     0.3979     0.0053 C.2     
   6 C6             1.2829    -0.5479    -0.0173 C.2     
   7 C7             3.6599     0.1208    -0.0330 C.2     
   8 C8             4.6299     1.2249    -0.1479 C.2     
   9 O9             4.0528    -1.0324     0.0291 O.2     
  10 N10            1.5273    -1.9121    -0.0804 N.pl3   
  11 N11           -1.1552     2.1444     0.1389 N.pl3   
  12 N12           -2.1340    -1.4238     0.0078 N.1     
  13 C13           -1.0552     3.6047     0.2008 C.3     
  14 C14           -2.4595     4.2105     0.2464 C.3     
  15 N15           -2.3593     5.6748     0.3085 N.3     
  16 C16           -3.6735     6.3008     0.1154 C.3     
  17 C17           -1.3833     6.1773    -0.6669 C.3     
  18 C18           -1.1983     7.6843    -0.4754 C.3     
  19 C19           -2.5455     8.3871    -0.6648 C.3     
  20 C20           -3.5569     7.8115     0.3303 C.3     
  21 C21            4.3548     2.5419    -0.3409 C.2     
  22 O22            5.4953     3.2422    -0.3924 O.3     
  23 C23            6.5698     2.4410    -0.2390 C.ar    
  24 C24            6.1009     1.1299    -0.0707 C.ar    
  25 C25            7.9384     2.6809    -0.2178 C.ar    
  26 C26            8.8181     1.6350    -0.0382 C.ar    
  27 C27            8.3522     0.3385     0.1221 C.ar    
  28 C28            6.9980     0.0820     0.1111 C.ar    
  29 H29            2.4396    -2.2404    -0.1111 H       
  30 H30            0.7861    -2.5376    -0.0939 H       
  31 H31           -2.0262     1.7177     0.1324 H       
  32 H32           -0.5056     3.8937     1.0966 H       
  33 H33           -0.5302     3.9707    -0.6815 H       
  34 H34           -3.0091     3.9216    -0.6494 H       
  35 H35           -2.9845     3.8445     1.1287 H       
  36 H36           -4.0242     6.1041    -0.8977 H       
  37 H37           -4.3823     5.8857     0.8320 H       
  38 H38           -0.4287     5.6725    -0.5186 H       
  39 H39           -1.7448     5.9812    -1.6764 H       
  40 H40           -0.8238     7.8802     0.5293 H       
  41 H41           -0.4856     8.0597    -1.2097 H       
  42 H42           -2.4269     9.4559    -0.4866 H       
  43 H43           -2.9017     8.2237    -1.6819 H       
  44 H44           -4.5293     8.2778     0.1717 H       
  45 H45           -3.2194     8.0094     1.3477 H       
  46 H46            3.3642     2.9611    -0.4385 H       
  47 H47            8.3127     3.6863    -0.3423 H       
  48 H48            9.8808     1.8269    -0.0225 H       
  49 H49            9.0525    -0.4718     0.2616 H       
  50 H50            6.6355    -0.9277     0.2360 H       
@<TRIPOS>BOND
   1    1    2 2
   2    1    4 1
   3    1   11 1
   4    2    3 1
   5    2    6 1
   6    3   12 3
   7    4    5 1
   8    5    6 2
   9    5    7 1
  10    6   10 1
  11    7    8 1
  12    7    9 2
  13    8   21 2
  14    8   24 1
  15   10   29 1
  16   10   30 1
  17   11   13 1
  18   11   31 1
  19   13   14 1
  20   13   32 1
  21   13   33 1
  22   14   15 1
  23   14   34 1
  24   14   35 1
  25   15   16 1
  26   15   17 1
  27   16   20 1
  28   16   36 1
  29   16   37 1
  30   17   18 1
  31   17   38 1
  32   17   39 1
  33   18   19 1
  34   18   40 1
  35   18   41 1
  36   19   20 1
  37   19   42 1
  38   19   43 1
  39   20   44 1
  40   20   45 1
  41   21   22 1
  42   21   46 1
  43   22   23 1
  44   23   24 ar
  45   23   25 ar
  46   24   28 ar
  47   25   26 ar
  48   25   47 1
  49   26   27 ar
  50   26   48 1
  51   27   28 ar
  52   27   49 1
  53   28   50 1

#	End of record

