#	Name: ASD01148717
#	Creating user name:	WinNT
#	Creation time:	15. 06. 2019 19:03

#	Modifying user name:	WinNT
#	Modification time:	15. 06. 2019 19:03

#	Program:	/corina/corina34_cracker 3.40 0067  02.08.2006

@<TRIPOS>MOLECULE
ASD01148717
  54   57    0    0    0
SMALL
NO_CHARGES


@<TRIPOS>ATOM
   1 N1            -0.0159     1.3409     0.0806 N.pl3   
   2 C2             0.0026     0.0049    -0.1115 C.2     
   3 C3             1.3184    -0.4069    -0.1549 C.2     
   4 C4             2.1212     0.7506     0.0213 C.2     
   5 C5             1.2766     1.8045     0.1629 C.2     
   6 C6             1.7986    -1.7845    -0.3466 C.2     
   7 O7             1.0021    -2.6920    -0.4861 O.2     
   8 O8             3.1219    -2.0401    -0.3676 O.3     
   9 C9            -1.1690     2.1311     0.1751 C.ar    
  10 C10           -2.0123     2.0031     1.2707 C.ar    
  11 C11           -3.1480     2.7838     1.3613 C.ar    
  12 C12           -3.4458     3.6921     0.3620 C.ar    
  13 C13           -2.6080     3.8219    -0.7304 C.ar    
  14 C14           -1.4678     3.0480    -0.8239 C.ar    
  15 S15           -4.8962     4.6855     0.4806 S.o2    
  16 O16           -5.2286     5.0704    -0.8463 O.2     
  17 O17           -5.7920     3.9874     1.3348 O.2     
  18 N18           -4.4754     6.0741     1.2788 N.am    
  19 C19           -1.2061    -0.8839    -0.2535 C.3     
  20 C20            1.6781     3.2117     0.3702 C.ar    
  21 C21            0.7777     4.1199     0.9314 C.ar    
  22 C22            1.1529     5.4305     1.1246 C.ar    
  23 C23            2.4315     5.8514     0.7597 C.ar    
  24 C24            3.3315     4.9453     0.1992 C.ar    
  25 C25            2.9602     3.6328     0.0105 C.ar    
  26 O26            2.8124     9.3854     1.5111 O.3     
  27 C27            2.0803     8.2620     1.4973 C.2     
  28 C28            2.8344     7.2638     0.9674 C.2     
  29 C29            4.1299     7.8719     0.6434 C.2     
  30 C30            4.0346     9.1626     1.0044 C.2     
  31 C31            3.5233    -3.4221    -0.5609 C.3     
  32 C32            5.0505    -3.5149    -0.5561 C.3     
  33 H33            3.2005     0.7862     0.0398 H       
  34 H34           -1.7806     1.2934     2.0512 H       
  35 H35           -3.8043     2.6847     2.2133 H       
  36 H36           -2.8435     4.5319    -1.5094 H       
  37 H37           -0.8117     3.1529    -1.6753 H       
  38 H38           -4.9417     6.9031     1.0886 H       
  39 H39           -3.7625     6.0584     1.9364 H       
  40 H40           -1.4857    -0.9518    -1.3049 H       
  41 H41           -0.9721    -1.8788     0.1252 H       
  42 H42           -2.0349    -0.4639     0.3164 H       
  43 H43           -0.2128     3.7943     1.2134 H       
  44 H44            0.4567     6.1330     1.5585 H       
  45 H45            4.3213     5.2722    -0.0834 H       
  46 H46            3.6586     2.9303    -0.4198 H       
  47 H47            1.0635     8.1666     1.8485 H       
  48 H48            4.9862     7.3815     0.2046 H       
  49 H49            4.8155     9.9016     0.9026 H       
  50 H50            3.1196    -4.0339     0.2458 H       
  51 H51            3.1405    -3.7814    -1.5161 H       
  52 H52            5.3519    -4.5524    -0.7012 H       
  53 H53            5.4543    -2.9031    -1.3627 H       
  54 H54            5.4334    -3.1556     0.3991 H       
@<TRIPOS>BOND
   1    1    2 1
   2    1    5 1
   3    1    9 1
   4    2    3 2
   5    2   19 1
   6    3    4 1
   7    3    6 1
   8    4    5 2
   9    4   33 1
  10    5   20 1
  11    6    7 2
  12    6    8 1
  13    8   31 1
  14    9   10 ar
  15    9   14 ar
  16   10   11 ar
  17   10   34 1
  18   11   12 ar
  19   11   35 1
  20   12   13 ar
  21   12   15 1
  22   13   14 ar
  23   13   36 1
  24   14   37 1
  25   15   16 2
  26   15   17 2
  27   15   18 am
  28   18   38 1
  29   18   39 1
  30   19   40 1
  31   19   41 1
  32   19   42 1
  33   20   21 ar
  34   20   25 ar
  35   21   22 ar
  36   21   43 1
  37   22   23 ar
  38   22   44 1
  39   23   24 ar
  40   23   28 1
  41   24   25 ar
  42   24   45 1
  43   25   46 1
  44   26   27 1
  45   26   30 1
  46   27   28 2
  47   27   47 1
  48   28   29 1
  49   29   30 2
  50   29   48 1
  51   30   49 1
  52   31   32 1
  53   31   50 1
  54   31   51 1
  55   32   52 1
  56   32   53 1
  57   32   54 1

#	End of record

