#	Name: ASD00431457
#	Creating user name:	WinNT
#	Creation time:	15. 06. 2019 18:35

#	Modifying user name:	WinNT
#	Modification time:	15. 06. 2019 18:35

#	Program:	/corina/corina34_cracker 3.40 0067  02.08.2006

@<TRIPOS>MOLECULE
ASD00431457
  55   59    0    0    0
SMALL
NO_CHARGES


@<TRIPOS>ATOM
   1 C1             0.0799     0.8038    -0.3541 C.2     
   2 N2            -0.0057    -0.5384    -0.3254 N.am    
   3 C3             1.2141    -1.1024    -0.3857 C.2     
   4 C4             2.2264    -0.0281    -0.4632 C.ar    
   5 C5             3.6096    -0.0056    -0.5430 C.ar    
   6 C6             4.2748     1.2091    -0.6025 C.ar    
   7 C7             3.5680     2.3968    -0.5827 C.ar    
   8 C8             2.1842     2.3898    -0.5032 C.ar    
   9 C9             1.5058     1.1831    -0.4430 C.ar    
  10 O10           -0.8578     1.5749    -0.3182 O.2     
  11 O11            1.4450    -2.2947    -0.3773 O.2     
  12 C12           -1.2619    -1.2872    -0.2392 C.3     
  13 C13           -1.4028    -2.1898    -1.4666 C.3     
  14 O14           -0.2190    -2.8187     1.5066 O.3     
  15 N15           -0.5121    -3.4074     2.5211 N.2     
  16 C16           -1.7683    -3.2055     2.8450 C.2     
  17 C17           -2.3011    -2.3464     1.8402 C.2     
  18 C18           -1.2581    -2.1327     1.0083 C.2     
  19 S19           -4.1732    -3.4700     4.4243 S.3     
  20 C20           -4.0158    -4.4596     5.8092 C.2     
  21 N21           -2.8070    -4.9228     5.8966 N.2     
  22 C22           -1.9601    -4.5689     4.9551 C.2     
  23 C23           -2.4841    -3.7567     4.0134 C.2     
  24 O24           -5.0108    -4.7226     6.6896 O.3     
  25 C25           -4.7611    -5.6095     7.6883 C.ar    
  26 C26           -3.8494    -5.2942     8.6846 C.ar    
  27 C27           -3.5973    -6.2008     9.7023 C.ar    
  28 C28           -4.2574    -7.4216     9.7219 C.ar    
  29 C29           -5.1649    -7.7337     8.7280 C.ar    
  30 C30           -5.4224    -6.8293     7.7154 C.ar    
  31 O31           -2.7041    -5.8949    10.6798 O.3     
  32 C32           -2.5526    -6.8415    11.7395 C.3     
  33 C33           -1.1867    -6.6511    12.4020 C.3     
  34 C34           -3.6568    -6.6270    12.7767 C.3     
  35 H35            4.1670    -0.9305    -0.5584 H       
  36 H36            5.3529     1.2276    -0.6643 H       
  37 H37            4.0977     3.3369    -0.6293 H       
  38 H38            1.6372     3.3208    -0.4877 H       
  39 H39           -2.0989    -0.5899    -0.2029 H       
  40 H40           -2.3375    -2.7469    -1.4025 H       
  41 H41           -1.4056    -1.5782    -2.3689 H       
  42 H42           -0.5659    -2.8871    -1.5028 H       
  43 H43           -3.3052    -1.9567     1.7620 H       
  44 H44           -0.9322    -4.9000     4.9371 H       
  45 H45           -3.3365    -4.3439     8.6674 H       
  46 H46           -4.0612    -8.1284    10.5147 H       
  47 H47           -5.6772    -8.6843     8.7449 H       
  48 H48           -6.1358    -7.0735     6.9423 H       
  49 H49           -2.6235    -7.8520    11.3370 H       
  50 H50           -1.1158    -5.6406    12.8045 H       
  51 H51           -1.0711    -7.3731    13.2104 H       
  52 H52           -0.4000    -6.8039    11.6632 H       
  53 H53           -4.6299    -6.7626    12.3047 H       
  54 H54           -3.5412    -7.3490    13.5850 H       
  55 H55           -3.5859    -5.6165    13.1791 H       
@<TRIPOS>BOND
   1    1    2 am
   2    1    9 1
   3    1   10 2
   4    2    3 am
   5    2   12 1
   6    3    4 1
   7    3   11 2
   8    4    5 ar
   9    4    9 ar
  10    5    6 ar
  11    5   35 1
  12    6    7 ar
  13    6   36 1
  14    7    8 ar
  15    7   37 1
  16    8    9 ar
  17    8   38 1
  18   12   13 1
  19   12   18 1
  20   12   39 1
  21   13   40 1
  22   13   41 1
  23   13   42 1
  24   14   15 1
  25   14   18 1
  26   15   16 2
  27   16   17 1
  28   16   23 1
  29   17   18 2
  30   17   43 1
  31   19   20 1
  32   19   23 1
  33   20   21 2
  34   20   24 1
  35   21   22 1
  36   22   23 2
  37   22   44 1
  38   24   25 1
  39   25   26 ar
  40   25   30 ar
  41   26   27 ar
  42   26   45 1
  43   27   28 ar
  44   27   31 1
  45   28   29 ar
  46   28   46 1
  47   29   30 ar
  48   29   47 1
  49   30   48 1
  50   31   32 1
  51   32   33 1
  52   32   34 1
  53   32   49 1
  54   33   50 1
  55   33   51 1
  56   33   52 1
  57   34   53 1
  58   34   54 1
  59   34   55 1

#	End of record

