#	Name: ASD01850076
#	Creating user name:	WinNT
#	Creation time:	15. 06. 2019 19:38

#	Modifying user name:	WinNT
#	Modification time:	15. 06. 2019 19:38

#	Program:	/corina/corina34_cracker 3.40 0067  02.08.2006

@<TRIPOS>MOLECULE
ASD01850076
  60   63    0    0    0
SMALL
NO_CHARGES


@<TRIPOS>ATOM
   1 C1             2.2982    -0.3846    -1.9007 C.ar    
   2 C2             1.7687    -0.9168    -0.7403 C.ar    
   3 C3             1.9253    -0.2497     0.4605 C.ar    
   4 C4             2.6117     0.9493     0.5005 C.ar    
   5 C5             3.1422     1.4812    -0.6601 C.ar    
   6 C6             2.9845     0.8150    -1.8608 C.ar    
   7 C7             5.1667     2.8926     1.5737 C.3     
   8 N8             3.9932     3.2464     0.7713 N.am    
   9 C9             4.9752     1.5200     2.1657 C.2     
  10 C10            3.0087     3.9928     1.3099 C.2     
  11 C11            3.1839     4.5960     2.6797 C.3     
  12 O12            1.9817     4.1790     0.6922 O.2     
  13 C13            2.2042     5.7588     2.8539 C.3     
  14 C14            2.9094     3.5316     3.7445 C.3     
  15 C15            3.1221     4.1389     5.1347 C.3     
  16 N16            2.2897     5.3434     5.2570 N.am    
  17 C17            2.4089     6.3914     4.2340 C.3     
  18 C18            2.1143     6.3148     7.8260 C.ar    
  19 C19            2.1167     7.6773     7.9035 C.ar    
  20 C20            2.8137     8.3103     8.9389 C.ar    
  21 C21            3.5049     7.5347     9.8894 C.ar    
  22 C22            3.4841     6.1459     9.7848 C.ar    
  23 C23            2.7927     5.5510     8.7681 C.ar    
  24 C24            3.0237     9.7042     9.3161 C.2     
  25 N25            3.7675     9.7193    10.3852 N.2     
  26 N26            4.0839     8.4120    10.7687 N.pl3   
  27 C27            3.8899     2.7889    -0.6166 C.3     
  28 C28            5.8932     0.6006     1.9981 C.2     
  29 C29            3.5623     1.3950    -3.1259 C.3     
  30 F30            3.3417     0.5109    -4.1875 F       
  31 F31            2.9441     2.6192    -3.4025 F       
  32 F32            4.9375     1.5935    -2.9624 F       
  33 S33            1.2367     5.5164     6.5233 S.o2    
  34 O34            0.2381     6.4311     6.0927 O.2     
  35 O35            0.9427     4.2043     6.9828 O.2     
  36 H36            2.1798    -0.9080    -2.8380 H       
  37 H37            1.2323    -1.8537    -0.7716 H       
  38 H38            1.5109    -0.6652     1.3671 H       
  39 H39            2.7334     1.4708     1.4384 H       
  40 H40            6.0539     2.8947     0.9405 H       
  41 H41            5.2912     3.6201     2.3758 H       
  42 H42            4.0812     1.2944     2.7280 H       
  43 H43            4.2049     4.9622     2.7874 H       
  44 H44            2.3850     6.5057     2.0809 H       
  45 H45            1.1822     5.3889     2.7712 H       
  46 H46            1.8808     3.1827     3.6534 H       
  47 H47            3.5920     2.6933     3.6054 H       
  48 H48            2.8329     3.4159     5.8975 H       
  49 H49            4.1715     4.4056     5.2603 H       
  50 H50            3.4002     6.8418     4.2861 H       
  51 H51            1.6492     7.1546     4.4025 H       
  52 H52            1.5840     8.2638     7.1697 H       
  53 H53            4.0109     5.5407    10.5078 H       
  54 H54            2.7791     4.4738     8.6911 H       
  55 H55            2.6322    10.5689     8.8009 H       
  56 H56            4.6261     8.1657    11.5344 H       
  57 H57            4.8893     2.6500    -1.0287 H       
  58 H58            3.3543     3.5334    -1.2056 H       
  59 H59            6.7872     0.8262     1.4358 H       
  60 H60            5.7560    -0.3831     2.4223 H       
@<TRIPOS>BOND
   1    1    2 ar
   2    1    6 ar
   3    1   36 1
   4    2    3 ar
   5    2   37 1
   6    3    4 ar
   7    3   38 1
   8    4    5 ar
   9    4   39 1
  10    5    6 ar
  11    5   27 1
  12    6   29 1
  13    7    8 1
  14    7    9 1
  15    7   40 1
  16    7   41 1
  17    8   10 am
  18    8   27 1
  19    9   28 2
  20    9   42 1
  21   10   11 1
  22   10   12 2
  23   11   13 1
  24   11   14 1
  25   11   43 1
  26   13   17 1
  27   13   44 1
  28   13   45 1
  29   14   15 1
  30   14   46 1
  31   14   47 1
  32   15   16 1
  33   15   48 1
  34   15   49 1
  35   16   33 am
  36   16   17 1
  37   17   50 1
  38   17   51 1
  39   18   33 1
  40   18   19 ar
  41   18   23 ar
  42   19   20 ar
  43   19   52 1
  44   20   21 ar
  45   20   24 1
  46   21   22 ar
  47   21   26 1
  48   22   23 ar
  49   22   53 1
  50   23   54 1
  51   24   25 2
  52   24   55 1
  53   25   26 1
  54   26   56 1
  55   27   57 1
  56   27   58 1
  57   28   59 1
  58   28   60 1
  59   29   30 1
  60   29   31 1
  61   29   32 1
  62   33   34 2
  63   33   35 2

#	End of record

