#	Name: ASD01812499
#	Creating user name:	WinNT
#	Creation time:	15. 06. 2019 19:28

#	Modifying user name:	WinNT
#	Modification time:	15. 06. 2019 19:28

#	Program:	/corina/corina34_cracker 3.40 0067  02.08.2006

@<TRIPOS>MOLECULE
ASD01812499
  48   52    0    0    0
SMALL
NO_CHARGES


@<TRIPOS>ATOM
   1 C1            -0.0211     1.4558     0.0434 C.ar    
   2 C2            -0.0032    -0.0041     0.0520 C.ar    
   3 C3            -1.2104    -0.7007    -0.1997 C.ar    
   4 C4            -2.3975     0.0187    -0.4512 C.ar    
   5 C5            -2.4078     1.3729    -0.4578 C.ar    
   6 C6            -1.2401     2.1115    -0.2095 C.ar    
   7 C7            -1.2034    -2.1039    -0.1936 C.ar    
   8 C8            -0.0421    -2.7736     0.0529 C.ar    
   9 C9             1.1419    -2.0862     0.3001 C.ar    
  10 C10            1.1708    -0.7220     0.3017 C.ar    
  11 N11            1.0846     2.1832     0.2740 N.2     
  12 C12            1.0619     3.4842     0.2654 C.2     
  13 N13           -0.0647     4.2046     0.0267 N.am    
  14 C14           -1.2406     3.5796    -0.2144 C.2     
  15 C15           -3.6764    -0.7327    -0.7177 C.3     
  16 C16           -4.3333    -1.0865     0.5917 C.ar    
  17 C17           -4.0332    -2.2770     1.2238 C.ar    
  18 C18           -5.2421    -0.2167     1.1780 C.ar    
  19 C19           -5.8224    -0.5805     2.3808 C.ar    
  20 C20           -5.4779    -1.7963     2.9569 C.ar    
  21 N21           -4.6031    -2.5963     2.3700 N.ar    
  22 O22           -2.2602     4.2108    -0.4266 O.2     
  23 O23           -6.0394    -2.1642     4.1360 O.3     
  24 C24           -5.6439    -3.4263     4.6770 C.3     
  25 C25           -0.0099     5.6042     0.0346 C.ar    
  26 C26           -0.5719     7.7134     0.9972 C.ar    
  27 C27           -0.6553     6.3308     1.0317 C.ar    
  28 C28            0.6938     6.2874    -0.9487 C.ar    
  29 N29            0.7484     7.6041    -0.9441 N.ar    
  30 C30            0.1440     8.3215    -0.0169 C.ar    
  31 H31           -3.3328     1.8947    -0.6540 H       
  32 H32           -2.1149    -2.6513    -0.3831 H       
  33 H33           -0.0411    -3.8536     0.0566 H       
  34 H34            2.0492    -2.6391     0.4934 H       
  35 H35            2.0958    -0.1992     0.4948 H       
  36 H36            1.9819     4.0162     0.4575 H       
  37 H37           -4.3494    -0.1078    -1.3047 H       
  38 H38           -3.4531    -1.6453    -1.2704 H       
  39 H39           -3.3234    -2.9553     0.7740 H       
  40 H40           -5.4905     0.7227     0.7066 H       
  41 H41           -6.5335     0.0725     2.8650 H       
  42 H42           -6.1656    -3.5975     5.6186 H       
  43 H43           -5.8963    -4.2188     3.9725 H       
  44 H44           -4.5681    -3.4253     4.8526 H       
  45 H45           -1.0600     8.3091     1.7544 H       
  46 H46           -1.2076     5.8291     1.8125 H       
  47 H47            1.2017     5.7340    -1.7247 H       
  48 H48            0.2119     9.3988    -0.0487 H       
@<TRIPOS>BOND
   1    1    2 ar
   2    1   11 1
   3    1    6 ar
   4    2   10 ar
   5    2    3 ar
   6    3    4 ar
   7    3    7 ar
   8    4    5 ar
   9    4   15 1
  10    5    6 ar
  11    5   31 1
  12    6   14 1
  13    7    8 ar
  14    7   32 1
  15    8    9 ar
  16    8   33 1
  17    9   10 ar
  18    9   34 1
  19   10   35 1
  20   11   12 2
  21   12   13 1
  22   12   36 1
  23   13   14 am
  24   13   25 1
  25   14   22 2
  26   15   16 1
  27   15   37 1
  28   15   38 1
  29   16   18 ar
  30   16   17 ar
  31   17   21 ar
  32   17   39 1
  33   18   19 ar
  34   18   40 1
  35   19   20 ar
  36   19   41 1
  37   20   21 ar
  38   20   23 1
  39   23   24 1
  40   24   42 1
  41   24   43 1
  42   24   44 1
  43   25   28 ar
  44   25   27 ar
  45   26   27 ar
  46   26   30 ar
  47   26   45 1
  48   27   46 1
  49   28   29 ar
  50   28   47 1
  51   29   30 ar
  52   30   48 1

#	End of record

