#	Name: ASD01140221
#	Creating user name:	WinNT
#	Creation time:	15. 06. 2019 19:00

#	Modifying user name:	WinNT
#	Modification time:	15. 06. 2019 19:00

#	Program:	/corina/corina34_cracker 3.40 0067  02.08.2006

@<TRIPOS>MOLECULE
ASD01140221
  46   49    0    0    0
SMALL
NO_CHARGES


@<TRIPOS>ATOM
   1 C1            -0.1357     1.9312     0.3693 C.2     
   2 C2            -0.3285     0.6012     0.5716 C.2     
   3 C3             2.0847     1.2774     0.3046 C.2     
   4 C4             1.1801     2.3199     0.2040 C.2     
   5 C5             3.5422     1.3959     0.2249 C.2     
   6 N6             4.2006     2.1831    -0.5692 N.2     
   7 C7             3.5340     3.0105    -1.5774 C.3     
   8 C8             2.6130     3.9828    -0.8880 C.2     
   9 N9             1.5710     3.6431    -0.0889 N.pl3   
  10 C10            1.0148     4.8012     0.3365 C.2     
  11 N11            2.6516     5.2843    -0.9329 N.2     
  12 N12            1.7059     5.7719    -0.2062 N.2     
  13 C13           -1.6016    -0.0260     0.7623 C.1     
  14 C14           -2.6454    -0.5401     0.9187 C.1     
  15 C15           -0.1705     4.9456     1.2560 C.3     
  16 C16            4.3383     0.5383     1.1351 C.ar    
  17 C17            3.7649     0.0347     2.3019 C.ar    
  18 C18            4.5109    -0.7630     3.1454 C.ar    
  19 C19            5.8253    -1.0628     2.8354 C.ar    
  20 C20            6.3998    -0.5656     1.6793 C.ar    
  21 C21            5.6616     0.2276     0.8248 C.ar    
  22 S22            1.2158    -0.2333     0.5636 S.3     
  23 Si23          -4.3346    -1.3723     1.1718 Si      
  24 C24           -4.0949    -3.2044     1.4098 C.3     
  25 C25           -5.1615    -0.6533     2.6785 C.3     
  26 C26           -5.4037    -1.0751    -0.3246 C.3     
  27 H27           -0.9544     2.6348     0.3355 H       
  28 H28            4.2814     3.5599    -2.1498 H       
  29 H29            2.9562     2.3737    -2.2473 H       
  30 H30            0.1636     4.8846     2.2917 H       
  31 H31           -0.6480     5.9103     1.0844 H       
  32 H32           -0.8843     4.1463     1.0568 H       
  33 H33            2.7391     0.2687     2.5453 H       
  34 H34            4.0678    -1.1537     4.0495 H       
  35 H35            6.4054    -1.6873     3.4987 H       
  36 H36            7.4265    -0.8027     1.4425 H       
  37 H37            6.1110     0.6150    -0.0776 H       
  38 H38           -3.4693    -3.3783     2.2853 H       
  39 H39           -5.0639    -3.6818     1.5550 H       
  40 H40           -3.6110    -3.6251     0.5283 H       
  41 H41           -5.3017     0.4186     2.5393 H       
  42 H42           -6.1306    -1.1307     2.8237 H       
  43 H43           -4.5360    -0.8272     3.5541 H       
  44 H44           -4.9199    -1.4957    -1.2062 H       
  45 H45           -6.3728    -1.5525    -0.1794 H       
  46 H46           -5.5440    -0.0031    -0.4639 H       
@<TRIPOS>BOND
   1    1    2 2
   2    1    4 1
   3    1   27 1
   4    2   13 1
   5    2   22 1
   6    3    4 2
   7    3    5 1
   8    3   22 1
   9    4    9 1
  10    5    6 2
  11    5   16 1
  12    6    7 1
  13    7    8 1
  14    7   28 1
  15    7   29 1
  16    8    9 1
  17    8   11 2
  18    9   10 1
  19   10   15 1
  20   10   12 2
  21   11   12 1
  22   13   14 3
  23   14   23 1
  24   15   30 1
  25   15   31 1
  26   15   32 1
  27   16   17 ar
  28   16   21 ar
  29   17   18 ar
  30   17   33 1
  31   18   19 ar
  32   18   34 1
  33   19   20 ar
  34   19   35 1
  35   20   21 ar
  36   20   36 1
  37   21   37 1
  38   23   24 1
  39   23   25 1
  40   23   26 1
  41   24   38 1
  42   24   39 1
  43   24   40 1
  44   25   41 1
  45   25   42 1
  46   25   43 1
  47   26   44 1
  48   26   45 1
  49   26   46 1

#	End of record

