#	Name: ASD06170225
#	Creating user name:	WinNT
#	Creation time:	15. 06. 2019 21:05

#	Modifying user name:	WinNT
#	Modification time:	15. 06. 2019 21:05

#	Program:	/corina/corina34_cracker 3.40 0067  02.08.2006

@<TRIPOS>MOLECULE
ASD06170225
  76   80    0    0    0
SMALL
NO_CHARGES


@<TRIPOS>ATOM
   1 C1             0.6071     1.4550    -0.8008 C.2     
   2 C2             0.8436     0.0527    -0.8422 C.2     
   3 C3             1.9829    -0.4252    -0.1962 C.2     
   4 C4             2.8124     0.5018     0.4457 C.2     
   5 N5             2.5196     1.7744     0.4351 N.2     
   6 N6             1.4804     2.2470    -0.1497 N.am    
   7 C7            -0.0799    -0.8591    -1.5402 C.2     
   8 O8             0.2201    -2.0276    -1.6944 O.2     
   9 N9            -1.2570    -0.3982    -2.0076 N.am    
  10 C10            1.2473     3.6254    -0.1099 C.ar    
  11 C11            0.0743     4.1173     0.4487 C.ar    
  12 C12           -0.1525     5.4790     0.4867 C.ar    
  13 C13            0.7863     6.3527    -0.0309 C.ar    
  14 C14            1.9549     5.8664    -0.5881 C.ar    
  15 C15            2.1908     4.5062    -0.6238 C.ar    
  16 O16           -0.3696     1.9336    -1.3513 O.2     
  17 C17           -2.0914    -1.2389    -2.7536 C.ar    
  18 C18           -2.9140    -0.7059    -3.7378 C.ar    
  19 C19           -3.7372    -1.5370    -4.4741 C.ar    
  20 C20           -3.7411    -2.9051    -4.2291 C.ar    
  21 C21           -2.9195    -3.4360    -3.2464 C.ar    
  22 C22           -2.0927    -2.6065    -2.5138 C.ar    
  23 F23           -4.5380    -1.0196    -5.4313 F       
  24 O24           -4.5512    -3.7230    -4.9530 O.3     
  25 N25           -3.4707    -4.5269    -8.8514 N.ar    
  26 C26           -2.7807    -3.6673    -8.1391 C.ar    
  27 C27           -3.1145    -3.3711    -6.8236 C.ar    
  28 C28           -4.2022    -3.9921    -6.2352 C.ar    
  29 C29           -4.9377    -4.9158    -7.0116 C.ar    
  30 C30           -6.0526    -5.5844    -6.4844 C.ar    
  31 C31           -6.7400    -6.4698    -7.2634 C.ar    
  32 C32           -6.3427    -6.7175    -8.5851 C.ar    
  33 C33           -5.2613    -6.0810    -9.1226 C.ar    
  34 C34           -4.5339    -5.1639    -8.3461 C.ar    
  35 O35           -7.0432    -7.6034    -9.3408 O.3     
  36 C36           -6.5906    -7.8142   -10.6797 C.3     
  37 O37           -7.8204    -7.1183    -6.7524 O.3     
  38 C38           -8.1744    -6.8231    -5.3998 C.3     
  39 C39            4.0539     0.0269     1.1558 C.3     
  40 N40            4.7511     1.1776     1.7454 N.3     
  41 C41            3.9491     1.7880     2.8142 C.3     
  42 C42            4.4706     3.1973     3.1016 C.3     
  43 C43            6.0797     0.7916     2.2393 C.3     
  44 C44            7.0418     0.6507     1.0580 C.3     
  45 H45            2.2183    -1.4792    -0.1910 H       
  46 H46           -1.5259     0.5162    -1.8272 H       
  47 H47           -0.6596     3.4356     0.8525 H       
  48 H48           -1.0642     5.8621     0.9209 H       
  49 H49            0.6063     7.4171    -0.0002 H       
  50 H50            2.6858     6.5514    -0.9918 H       
  51 H51            3.1056     4.1273    -1.0551 H       
  52 H52           -2.9107     0.3573    -3.9273 H       
  53 H53           -2.9230    -4.4992    -3.0565 H       
  54 H54           -1.4501    -3.0215    -1.7514 H       
  55 H55           -1.9296    -3.1770    -8.5880 H       
  56 H56           -2.5273    -2.6593    -6.2623 H       
  57 H57           -6.3653    -5.3998    -5.4673 H       
  58 H58           -4.9664    -6.2813   -10.1421 H       
  59 H59           -7.2359    -8.5425   -11.1709 H       
  60 H60           -6.6235    -6.8721   -11.2269 H       
  61 H61           -5.5671    -8.1888   -10.6626 H       
  62 H62           -9.0511    -7.4063    -5.1181 H       
  63 H63           -7.3426    -7.0772    -4.7428 H       
  64 H64           -8.3995    -5.7607    -5.3067 H       
  65 H65            3.7764    -0.6728     1.9441 H       
  66 H66            4.7120    -0.4707     0.4435 H       
  67 H67            2.9069     1.8433     2.4999 H       
  68 H68            4.0247     1.1815     3.7167 H       
  69 H69            5.4762     3.1349     3.5175 H       
  70 H70            4.4955     3.7715     2.1754 H       
  71 H71            3.8116     3.6898     3.8167 H       
  72 H72            6.4506     1.5572     2.9206 H       
  73 H73            6.0091    -0.1601     2.7659 H       
  74 H74            7.1715     1.6204     0.5774 H       
  75 H75            8.0063     0.2905     1.4159 H       
  76 H76            6.6328    -0.0593     0.3391 H       
@<TRIPOS>BOND
   1    1    2 1
   2    1    6 am
   3    1   16 2
   4    2    3 2
   5    2    7 1
   6    3    4 1
   7    3   45 1
   8    4    5 2
   9    4   39 1
  10    5    6 1
  11    6   10 1
  12    7    8 2
  13    7    9 am
  14    9   17 1
  15    9   46 1
  16   10   11 ar
  17   10   15 ar
  18   11   12 ar
  19   11   47 1
  20   12   13 ar
  21   12   48 1
  22   13   14 ar
  23   13   49 1
  24   14   15 ar
  25   14   50 1
  26   15   51 1
  27   17   18 ar
  28   17   22 ar
  29   18   19 ar
  30   18   52 1
  31   19   20 ar
  32   19   23 1
  33   20   21 ar
  34   20   24 1
  35   21   22 ar
  36   21   53 1
  37   22   54 1
  38   24   28 1
  39   25   26 ar
  40   25   34 ar
  41   26   27 ar
  42   26   55 1
  43   27   28 ar
  44   27   56 1
  45   28   29 ar
  46   29   30 ar
  47   29   34 ar
  48   30   31 ar
  49   30   57 1
  50   31   32 ar
  51   31   37 1
  52   32   33 ar
  53   32   35 1
  54   33   34 ar
  55   33   58 1
  56   35   36 1
  57   36   59 1
  58   36   60 1
  59   36   61 1
  60   37   38 1
  61   38   62 1
  62   38   63 1
  63   38   64 1
  64   39   40 1
  65   39   65 1
  66   39   66 1
  67   40   41 1
  68   40   43 1
  69   41   42 1
  70   41   67 1
  71   41   68 1
  72   42   69 1
  73   42   70 1
  74   42   71 1
  75   43   44 1
  76   43   72 1
  77   43   73 1
  78   44   74 1
  79   44   75 1
  80   44   76 1

#	End of record

