#	Name: ASD02508154
#	Creating user name:	WinNT
#	Creation time:	15. 06. 2019 20:23

#	Modifying user name:	WinNT
#	Modification time:	15. 06. 2019 20:23

#	Program:	/corina/corina34_cracker 3.40 0067  02.08.2006

@<TRIPOS>MOLECULE
ASD02508154
  29   31    0    0    0
SMALL
NO_CHARGES


@<TRIPOS>ATOM
   1 C1             0.5347     2.0229    -0.3483 C.ar    
   2 C2             0.3149     0.6627    -0.0569 C.ar    
   3 C3             1.8231     2.4639    -0.5502 C.ar    
   4 C4             2.8838     1.5419    -0.4603 C.ar    
   5 C5             2.6545     0.2187    -0.1763 C.ar    
   6 C6             1.3587    -0.2245     0.0283 C.ar    
   7 S7            -0.6917     3.2758    -0.4830 S.3     
   8 C8             0.2795     4.6858    -0.8546 C.2     
   9 S9             1.9563     4.1809    -0.9053 S.3     
  10 S10            4.0031    -0.9104    -0.0712 S.o2    
  11 N11            4.4215    -1.0268     1.5269 N.am    
  12 C12            4.8666     0.1047     2.2172 C.ar    
  13 O13           -0.1361     5.8149    -1.0406 O.2     
  14 O14            3.4917    -2.1822    -0.4457 O.2     
  15 O15            5.0989    -0.2891    -0.7287 O.2     
  16 C16            4.3619     0.3930     3.4785 C.ar    
  17 C17            5.8183     0.9388     1.6451 C.ar    
  18 C18            6.2568     2.0557     2.3290 C.ar    
  19 C19            5.7487     2.3439     3.5844 C.ar    
  20 C20            4.8034     1.5110     4.1588 C.ar    
  21 F21            6.1797     3.4364     4.2520 F       
  22 H22           -0.6938     0.3112     0.1028 H       
  23 H23            3.8966     1.8822    -0.6182 H       
  24 H24            1.1700    -1.2641     0.2522 H       
  25 H25            4.3579    -1.8800     1.9840 H       
  26 H26            3.6245    -0.2563     3.9269 H       
  27 H27            6.2154     0.7140     0.6662 H       
  28 H28            6.9969     2.7046     1.8844 H       
  29 H29            4.4084     1.7377     5.1381 H       
@<TRIPOS>BOND
   1    1    2 ar
   2    1    3 ar
   3    1    7 1
   4    2    6 ar
   5    2   22 1
   6    3    4 ar
   7    3    9 1
   8    4    5 ar
   9    4   23 1
  10    5    6 ar
  11    5   10 1
  12    6   24 1
  13    7    8 1
  14    8    9 1
  15    8   13 2
  16   10   11 am
  17   10   14 2
  18   10   15 2
  19   11   12 1
  20   11   25 1
  21   12   16 ar
  22   12   17 ar
  23   16   20 ar
  24   16   26 1
  25   17   18 ar
  26   17   27 1
  27   18   19 ar
  28   18   28 1
  29   19   20 ar
  30   19   21 1
  31   20   29 1

#	End of record

