#	Name: ASD03330832
#	Creating user name:	WinNT
#	Creation time:	15. 06. 2019 20:38

#	Modifying user name:	WinNT
#	Modification time:	15. 06. 2019 20:38

#	Program:	/corina/corina34_cracker 3.40 0067  02.08.2006

@<TRIPOS>MOLECULE
ASD03330832
  60   62    0    0    0
SMALL
NO_CHARGES


@<TRIPOS>ATOM
   1 C1            -0.0195     2.1299     2.0177 C.2     
   2 N2            -0.1438     0.8451     2.4458 N.pl3   
   3 C3             1.2559     2.2794     1.5649 C.2     
   4 N4             1.8848     1.0914     1.7039 N.2     
   5 C5             1.0506     0.2231     2.2266 C.2     
   6 C6             1.3544    -1.1924     2.5274 C.ar    
   7 C7             1.8447     3.5153     1.0199 C.2     
   8 O8             1.1736     4.5268     0.9444 O.2     
   9 N9             3.1270     3.5249     0.6051 N.am    
  10 C10           -1.3475     0.2615     3.0442 C.3     
  11 C11           -2.5642     0.6363     2.1924 C.3     
  12 C12           -3.1233     1.9783     2.6539 C.3     
  13 N13           -2.0531     2.8640     3.1164 N.3     
  14 C14           -1.1080     3.1716     2.0327 C.3     
  15 C15            2.0015    -1.9877     1.5781 C.ar    
  16 C16            2.2828    -3.3101     1.8651 C.ar    
  17 C17            1.9243    -3.8462     3.0905 C.ar    
  18 C18            1.2812    -3.0604     4.0360 C.ar    
  19 C19            1.0010    -1.7374     3.7626 C.ar    
  20 C20            3.7125     4.7536     0.0633 C.3     
  21 C21            5.2080     4.7207     0.2462 C.2     
  22 C22            3.3832     4.8614    -1.4270 C.3     
  23 C23            1.8667     4.7991    -1.6200 C.3     
  24 C24            3.9125     6.1897    -1.9715 C.3     
  25 C25            4.0412     3.7032    -2.1797 C.3     
  26 O26            5.7618     3.6787     0.5265 O.2     
  27 N27            5.9300     5.8491     0.0983 N.am    
  28 C28            7.3905     5.8031     0.2029 C.3     
  29 C29           -2.6037     4.0947     3.6999 C.3     
  30 Cl30           0.8345    -3.7414     5.5691 Cl      
  31 F31            2.2014    -5.1394     3.3663 F       
  32 F32            2.3512    -1.4654     0.3822 F       
  33 H33            3.6623     2.7182     0.6654 H       
  34 H34           -1.2475    -0.8233     3.0794 H       
  35 H35           -1.4767     0.6494     4.0547 H       
  36 H36           -2.2661     0.7082     1.1464 H       
  37 H37           -3.3309    -0.1314     2.2979 H       
  38 H38           -3.6462     2.4525     1.8233 H       
  39 H39           -3.8269     1.8112     3.4695 H       
  40 H40           -0.6690     4.1551     2.2001 H       
  41 H41           -1.6334     3.1635     1.0777 H       
  42 H42            2.7826    -3.9264     1.1325 H       
  43 H43            0.5006    -1.1270     4.4998 H       
  44 H44            3.3010     5.6149     0.5895 H       
  45 H45            1.3980     5.6242    -1.0838 H       
  46 H46            1.6322     4.8759    -2.6817 H       
  47 H47            1.4897     3.8528    -1.2321 H       
  48 H48            4.9648     6.2968    -1.7083 H       
  49 H49            3.8057     6.2062    -3.0561 H       
  50 H50            3.3440     7.0125    -1.5378 H       
  51 H51            3.6641     2.7569    -1.7918 H       
  52 H52            3.8066     3.7800    -3.2414 H       
  53 H53            5.1216     3.7477    -2.0422 H       
  54 H54            5.4826     6.6916    -0.0774 H       
  55 H55            7.7970     6.8038     0.0563 H       
  56 H56            7.6728     5.4374     1.1902 H       
  57 H57            7.7886     5.1339    -0.5598 H       
  58 H58           -3.2393     3.8417     4.5485 H       
  59 H59           -1.7874     4.7345     4.0353 H       
  60 H60           -3.1928     4.6209     2.9488 H       
@<TRIPOS>BOND
   1    1    2 1
   2    1    3 2
   3    1   14 1
   4    2   10 1
   5    2    5 1
   6    3    4 1
   7    3    7 1
   8    4    5 2
   9    5    6 1
  10    6   15 ar
  11    6   19 ar
  12    7    8 2
  13    7    9 am
  14    9   20 1
  15    9   33 1
  16   10   11 1
  17   10   34 1
  18   10   35 1
  19   11   12 1
  20   11   36 1
  21   11   37 1
  22   12   13 1
  23   12   38 1
  24   12   39 1
  25   13   14 1
  26   13   29 1
  27   14   40 1
  28   14   41 1
  29   15   16 ar
  30   15   32 1
  31   16   17 ar
  32   16   42 1
  33   17   18 ar
  34   17   31 1
  35   18   19 ar
  36   18   30 1
  37   19   43 1
  38   20   21 1
  39   20   22 1
  40   20   44 1
  41   21   26 2
  42   21   27 am
  43   22   23 1
  44   22   24 1
  45   22   25 1
  46   23   45 1
  47   23   46 1
  48   23   47 1
  49   24   48 1
  50   24   49 1
  51   24   50 1
  52   25   51 1
  53   25   52 1
  54   25   53 1
  55   27   28 1
  56   27   54 1
  57   28   55 1
  58   28   56 1
  59   28   57 1
  60   29   58 1
  61   29   59 1
  62   29   60 1

#	End of record

