#	Name: ASD01814906
#	Creating user name:	WinNT
#	Creation time:	15. 06. 2019 19:33

#	Modifying user name:	WinNT
#	Modification time:	15. 06. 2019 19:33

#	Program:	/corina/corina34_cracker 3.40 0067  02.08.2006

@<TRIPOS>MOLECULE
ASD01814906
  58   62    0    0    0
SMALL
NO_CHARGES


@<TRIPOS>ATOM
   1 C1            -0.0169     1.3972     0.0097 C.2     
   2 C2             0.0021    -0.0041     0.0020 C.2     
   3 C3             1.1986    -0.6593    -0.0129 C.2     
   4 C4             2.3918     0.0821    -0.0204 C.2     
   5 N5             2.3437     1.4497    -0.0122 N.am    
   6 C6             1.1421     2.0937     0.0024 C.2     
   7 C7             3.6227    -0.5889    -0.0356 C.2     
   8 C8             4.7877     0.1218    -0.0425 C.2     
   9 C9             4.7345     1.5280    -0.0346 C.2     
  10 C10            3.4812     2.1736    -0.0189 C.2     
  11 O11            3.4258     3.3917    -0.0123 O.2     
  12 C12            5.9703     2.3140    -0.0413 C.2     
  13 O13            5.9124     3.6618    -0.0337 O.3     
  14 O14            7.0487     1.7516    -0.0537 O.2     
  15 C15            3.6593    -2.0954    -0.0439 C.3     
  16 N16            3.7787    -2.5747    -1.4274 N.3     
  17 C17            4.0550    -4.0176    -1.4629 C.3     
  18 C18            4.0930    -4.4914    -2.9177 C.3     
  19 N19            5.1256    -3.7424    -3.6473 N.3     
  20 C20            4.8494    -2.2994    -3.6118 C.3     
  21 C21            4.8113    -1.8256    -2.1570 C.3     
  22 H22            5.0173    -4.2153    -0.9907 H       
  23 H23            4.3265    -5.5557    -2.9475 H       
  24 H24            3.1221    -4.3186    -3.3819 H       
  25 C25            5.2401    -4.2017    -4.9733 C.2     
  26 C26            6.0964    -3.7261    -5.9125 C.2     
  27 N27            5.8902    -4.4372    -7.0530 N.pl3   
  28 N28            4.8788    -5.3724    -6.7992 N.2     
  29 C29            4.4937    -5.2360    -5.5560 C.2     
  30 C30            6.5997    -4.2568    -8.3220 C.3     
  31 C31            7.2036    -5.5692    -8.7508 C.ar    
  32 C32            6.4782    -6.4369    -9.5456 C.ar    
  33 C33            8.4850    -5.9028    -8.3541 C.ar    
  34 C34            9.0390    -7.1067    -8.7474 C.ar    
  35 C35            8.3113    -7.9771    -9.5372 C.ar    
  36 C36            7.0321    -7.6408    -9.9390 C.ar    
  37 H37           -0.9605     1.9226     0.0170 H       
  38 H38           -0.9233    -0.5609     0.0082 H       
  39 H39            1.2282    -1.7389    -0.0187 H       
  40 H40            1.1156     3.1733     0.0087 H       
  41 H41            5.7393    -0.3889    -0.0536 H       
  42 H42            6.7544     4.1373    -0.0385 H       
  43 H43            4.5153    -2.4412     0.5356 H       
  44 H44            2.7412    -2.4836     0.3971 H       
  45 H45            3.2701    -4.5514    -0.9270 H       
  46 H46            5.6342    -1.7656    -4.1477 H       
  47 H47            3.8870    -2.1017    -4.0839 H       
  48 H48            4.5779    -0.7613    -2.1271 H       
  49 H49            5.7823    -1.9984    -1.6927 H       
  50 H50            6.8113    -2.9278    -5.7785 H       
  51 H51            3.7272    -5.8167    -5.0644 H       
  52 H52            5.9000    -3.9127    -9.0836 H       
  53 H53            7.3904    -3.5175    -8.1943 H       
  54 H54            5.4785    -6.1745    -9.8590 H       
  55 H55            9.0535    -5.2228    -7.7370 H       
  56 H56           10.0404    -7.3670    -8.4380 H       
  57 H57            8.7442    -8.9175    -9.8448 H       
  58 H58            6.4636    -8.3208   -10.5560 H       
@<TRIPOS>BOND
   1    1    2 1
   2    1    6 2
   3    1   37 1
   4    2    3 2
   5    2   38 1
   6    3    4 1
   7    3   39 1
   8    4    5 1
   9    4    7 2
  10    5    6 1
  11    5   10 am
  12    6   40 1
  13    7   15 1
  14    7    8 1
  15    8    9 2
  16    8   41 1
  17    9   10 1
  18    9   12 1
  19   10   11 2
  20   12   13 1
  21   12   14 2
  22   13   42 1
  23   15   16 1
  24   15   43 1
  25   15   44 1
  26   16   17 1
  27   16   21 1
  28   17   18 1
  29   17   22 1
  30   17   45 1
  31   18   19 1
  32   18   23 1
  33   18   24 1
  34   19   20 1
  35   19   25 1
  36   20   21 1
  37   20   46 1
  38   20   47 1
  39   21   48 1
  40   21   49 1
  41   25   26 2
  42   25   29 1
  43   26   27 1
  44   26   50 1
  45   27   28 1
  46   27   30 1
  47   28   29 2
  48   29   51 1
  49   30   31 1
  50   30   52 1
  51   30   53 1
  52   31   32 ar
  53   31   33 ar
  54   32   36 ar
  55   32   54 1
  56   33   34 ar
  57   33   55 1
  58   34   35 ar
  59   34   56 1
  60   35   36 ar
  61   35   57 1
  62   36   58 1

#	End of record

