#	Name: ASD01840143
#	Creating user name:	WinNT
#	Creation time:	15. 06. 2019 19:37

#	Modifying user name:	WinNT
#	Modification time:	15. 06. 2019 19:37

#	Program:	/corina/corina34_cracker 3.40 0067  02.08.2006

@<TRIPOS>MOLECULE
ASD01840143
  54   57    0    0    0
SMALL
NO_CHARGES


@<TRIPOS>ATOM
   1 C1             0.6119     2.3277     1.2509 C.ar    
   2 C2             0.6468     0.9734     1.5735 C.ar    
   3 N3             1.7605     0.2821     1.5314 N.ar    
   4 C4             2.9176     0.8474     1.1751 C.ar    
   5 C5             2.9531     2.2231     0.8334 C.ar    
   6 C6             1.7591     2.9690     0.8779 C.ar    
   7 C7             1.7473     4.4335     0.5231 C.3     
   8 C8            -0.6292     0.2839     1.9825 C.3     
   9 C9             4.1062     0.0943     1.1345 C.ar    
  10 C10            5.2734     0.6836     0.7713 C.ar    
  11 C11            5.3193     2.0474     0.4310 C.ar    
  12 C12            4.1672     2.8164     0.4605 C.ar    
  13 C13            6.6039     2.6638     0.0396 C.2     
  14 N14            7.7271     1.9195     0.0095 N.am    
  15 O15            6.6477     3.8424    -0.2553 O.2     
  16 C16            9.0007     2.5306    -0.3785 C.3     
  17 C17           10.2342     1.8055     0.1891 C.3     
  18 C18            9.5023     2.0898    -1.7655 C.3     
  19 N19           10.8427     2.0059    -1.1446 N.3     
  20 C20           11.5129     0.8660    -1.5614 C.ar    
  21 N21           12.7324     0.6304    -1.1021 N.ar    
  22 C22           13.4013    -0.4475    -1.4779 C.ar    
  23 C23           12.8075    -1.3370    -2.3660 C.ar    
  24 C24           11.5262    -1.0566    -2.8268 C.ar    
  25 N25           10.9150     0.0380    -2.4044 N.ar    
  26 O26           13.4650    -2.4554    -2.7749 O.3     
  27 C27           14.7278    -2.7257    -2.1631 C.3     
  28 C28           15.0154    -4.2270    -2.2288 C.3     
  29 C29           15.8274    -1.9628    -2.9045 C.3     
  30 H30           -0.3217     2.8693     1.2911 H       
  31 H31            1.5583     4.5472    -0.5444 H       
  32 H32            0.9623     4.9377     1.0868 H       
  33 H33            2.7127     4.8751     0.7702 H       
  34 H34           -1.1226    -0.1212     1.0990 H       
  35 H35           -0.3987    -0.5269     2.6737 H       
  36 H36           -1.2893     1.0009     2.4707 H       
  37 H37            4.0893    -0.9541     1.3931 H       
  38 H38            6.1798     0.0972     0.7437 H       
  39 H39            4.2042     3.8636     0.1988 H       
  40 H40            7.6921     0.9791     0.2448 H       
  41 H41            9.0178     3.6099    -0.2266 H       
  42 H42           10.7362     2.3521     0.9874 H       
  43 H43           10.0535     0.7595     0.4366 H       
  44 H44            9.1075     1.1269    -2.0896 H       
  45 H45            9.4195     2.8635    -2.5288 H       
  46 H46           14.3957    -0.6337    -1.0999 H       
  47 H47           11.0347    -1.7257    -3.5176 H       
  48 H48           14.7027    -2.4059    -1.1214 H       
  49 H49           15.0405    -4.5468    -3.2706 H       
  50 H50           15.9786    -4.4332    -1.7622 H       
  51 H51           14.2320    -4.7705    -1.7007 H       
  52 H52           16.7906    -2.1690    -2.4378 H       
  53 H53           15.8525    -2.2827    -3.9462 H       
  54 H54           15.6225    -0.8933    -2.8576 H       
@<TRIPOS>BOND
   1    1    2 ar
   2    1    6 ar
   3    1   30 1
   4    2    3 ar
   5    2    8 1
   6    3    4 ar
   7    4    5 ar
   8    4    9 ar
   9    5    6 ar
  10    5   12 ar
  11    6    7 1
  12    7   31 1
  13    7   32 1
  14    7   33 1
  15    8   34 1
  16    8   35 1
  17    8   36 1
  18    9   10 ar
  19    9   37 1
  20   10   11 ar
  21   10   38 1
  22   11   12 ar
  23   11   13 1
  24   12   39 1
  25   13   14 am
  26   13   15 2
  27   14   16 1
  28   14   40 1
  29   16   17 1
  30   16   18 1
  31   16   41 1
  32   17   19 1
  33   17   42 1
  34   17   43 1
  35   18   19 1
  36   18   44 1
  37   18   45 1
  38   19   20 1
  39   20   21 ar
  40   20   25 ar
  41   21   22 ar
  42   22   23 ar
  43   22   46 1
  44   23   24 ar
  45   23   26 1
  46   24   25 ar
  47   24   47 1
  48   26   27 1
  49   27   28 1
  50   27   29 1
  51   27   48 1
  52   28   49 1
  53   28   50 1
  54   28   51 1
  55   29   52 1
  56   29   53 1
  57   29   54 1

#	End of record

