#	Name: ASD03091216
#	Creating user name:	WinNT
#	Creation time:	15. 06. 2019 20:30

#	Modifying user name:	WinNT
#	Modification time:	15. 06. 2019 20:30

#	Program:	/corina/corina34_cracker 3.40 0067  02.08.2006

@<TRIPOS>MOLECULE
ASD03091216
  51   55    0    0    0
SMALL
NO_CHARGES


@<TRIPOS>ATOM
   1 C1            -0.5766     1.4752     0.0611 C.3     
   2 N2            -0.3879     0.0228     0.0257 N.am    
   3 C3            -0.0872    -0.6526     1.1779 C.2     
   4 N4             0.0944    -1.9474     1.2195 N.2     
   5 C5            -0.0046    -2.7126     0.1136 C.ar    
   6 C6            -0.3126    -2.1000    -1.1227 C.ar    
   7 C7            -0.5172    -0.6440    -1.1449 C.2     
   8 C8             0.0384     0.1167     2.4326 C.ar    
   9 O9            -0.7847    -0.0595    -2.1787 O.2     
  10 C10            0.1911    -4.0964     0.1641 C.ar    
  11 C11            0.0838    -4.8414    -0.9747 C.ar    
  12 C12           -0.2195    -4.2415    -2.1971 C.ar    
  13 C13           -0.4192    -2.8736    -2.2762 C.ar    
  14 N14           -0.3229    -5.0262    -3.3491 N.3     
  15 C15            0.1922    -4.3083    -4.5234 C.3     
  16 C16            0.9369    -5.2629    -5.4446 C.3     
  17 C17            0.0211    -6.1912    -6.2165 C.3     
  18 N18           -1.3947    -5.8786    -5.9749 N.3     
  19 C19           -1.8291    -6.4674    -4.6990 C.3     
  20 C20           -1.7092    -5.4542    -3.5713 C.3     
  21 C21           -1.7042    -4.4788    -6.1725 C.3     
  22 C22           -0.9529    -3.5805    -5.2037 C.3     
  23 C23           -0.7595    -0.2012     3.5331 C.ar    
  24 C24           -0.6373     0.5211     4.7018 C.ar    
  25 C25            0.2732     1.5599     4.7865 C.ar    
  26 C26            1.0679     1.8822     3.7017 C.ar    
  27 C27            0.9612     1.1634     2.5257 C.ar    
  28 F28            1.7378     1.4785     1.4660 F       
  29 H29            0.3751     1.9701    -0.1325 H       
  30 H30           -1.2992     1.7664    -0.7013 H       
  31 H31           -0.9461     1.7697     1.0433 H       
  32 H32            0.4272    -4.5750     1.1031 H       
  33 H33            0.2361    -5.9096    -0.9288 H       
  34 H34           -0.6540    -2.4108    -3.2234 H       
  35 H35            0.8981    -3.5545    -4.1748 H       
  36 H36            1.5214    -4.6783    -6.1551 H       
  37 H37            1.6204    -5.8647    -4.8456 H       
  38 H38            0.2305    -6.0930    -7.2817 H       
  39 H39            0.2159    -7.2190    -5.9101 H       
  40 H40           -2.8676    -6.7867    -4.7860 H       
  41 H41           -1.2059    -7.3325    -4.4722 H       
  42 H42           -2.0924    -5.9003    -2.6536 H       
  43 H43           -2.3135    -4.5806    -3.8160 H       
  44 H44           -1.4393    -4.1987    -7.1921 H       
  45 H45           -2.7752    -4.3305    -6.0340 H       
  46 H46           -1.6462    -3.2216    -4.4430 H       
  47 H47           -0.5546    -2.7253    -5.7496 H       
  48 H48           -1.4713    -1.0109     3.4694 H       
  49 H49           -1.2544     0.2754     5.5534 H       
  50 H50            0.3633     2.1219     5.7043 H       
  51 H51            1.7761     2.6943     3.7746 H       
@<TRIPOS>BOND
   1    1    2 1
   2    1   29 1
   3    1   30 1
   4    1   31 1
   5    2    3 1
   6    2    7 am
   7    3    4 2
   8    3    8 1
   9    4    5 1
  10    5    6 ar
  11    5   10 ar
  12    6    7 1
  13    6   13 ar
  14    7    9 2
  15    8   23 ar
  16    8   27 ar
  17   10   11 ar
  18   10   32 1
  19   11   12 ar
  20   11   33 1
  21   12   13 ar
  22   12   14 1
  23   13   34 1
  24   14   15 1
  25   14   20 1
  26   15   16 1
  27   15   22 1
  28   15   35 1
  29   16   17 1
  30   16   36 1
  31   16   37 1
  32   17   18 1
  33   17   38 1
  34   17   39 1
  35   18   19 1
  36   18   21 1
  37   19   20 1
  38   19   40 1
  39   19   41 1
  40   20   42 1
  41   20   43 1
  42   21   22 1
  43   21   44 1
  44   21   45 1
  45   22   46 1
  46   22   47 1
  47   23   24 ar
  48   23   48 1
  49   24   25 ar
  50   24   49 1
  51   25   26 ar
  52   25   50 1
  53   26   27 ar
  54   26   51 1
  55   27   28 1

#	End of record

