#	Name: ASD01940252
#	Creating user name:	WinNT
#	Creation time:	15. 06. 2019 20:12

#	Modifying user name:	WinNT
#	Modification time:	15. 06. 2019 20:12

#	Program:	/corina/corina34_cracker 3.40 0067  02.08.2006

@<TRIPOS>MOLECULE
ASD01940252
  36   38    0    0    0
SMALL
NO_CHARGES


@<TRIPOS>ATOM
   1 C1            -0.4845     1.4459    -0.0352 C.2     
   2 C2            -0.6005     0.1178    -0.0710 C.2     
   3 C3             0.5971    -0.5703    -0.1669 C.2     
   4 C4             1.6860     0.2004    -0.2091 C.2     
   5 S5             1.2143     1.8927    -0.1254 S.3     
   6 S6            -1.8282     2.5800     0.0775 S.o2    
   7 O7            -1.3599     3.8112    -0.4555 O.2     
   8 O8            -2.9704     1.9001    -0.4247 O.2     
   9 N9            -2.1121     2.8452     1.6873 N.am    
  10 C10           -1.1061     3.3916     2.4955 C.ar    
  11 C11           -0.9696     2.9741     3.8188 C.ar    
  12 C12            0.0291     3.5183     4.6147 C.ar    
  13 C13            0.8865     4.4740     4.0922 C.ar    
  14 C14            0.7485     4.8870     2.7785 C.ar    
  15 C15           -0.2411     4.3440     1.9791 C.ar    
  16 N16           -1.8385     2.0079     4.3441 N.pl3   
  17 C17           -1.9710     1.8657     5.7290 C.ar    
  18 C18           -2.6763     2.8143     6.4631 C.ar    
  19 C19           -2.8053     2.6696     7.8317 C.ar    
  20 C20           -2.2335     1.5834     8.4706 C.ar    
  21 C21           -1.5318     0.6397     7.7430 C.ar    
  22 C22           -1.4042     0.7747     6.3737 C.ar    
  23 I23           -2.4308     1.3684    10.5452 I       
  24 F24           -3.2337     3.8751     5.8393 F       
  25 F25            1.8583     5.0036     4.8670 F       
  26 F26            0.1649     3.1173     5.8977 F       
  27 Br27           3.4639    -0.4306    -0.3384 Br      
  28 H28           -1.5564    -0.3831    -0.0279 H       
  29 H29            0.6464    -1.6485    -0.2044 H       
  30 H30           -2.9748     2.6224     2.0708 H       
  31 H31            1.4181     5.6323     2.3752 H       
  32 H32           -0.3426     4.6653     0.9530 H       
  33 H33           -2.3480     1.4379     3.7471 H       
  34 H34           -3.3524     3.4051     8.4029 H       
  35 H35           -1.0863    -0.2063     8.2451 H       
  36 H36           -0.8597     0.0346     5.8061 H       
@<TRIPOS>BOND
   1    1    2 2
   2    1    5 1
   3    1    6 1
   4    2    3 1
   5    2   28 1
   6    3    4 2
   7    3   29 1
   8    4    5 1
   9    4   27 1
  10    6    7 2
  11    6    8 2
  12    6    9 am
  13    9   10 1
  14    9   30 1
  15   10   11 ar
  16   10   15 ar
  17   11   12 ar
  18   11   16 1
  19   12   13 ar
  20   12   26 1
  21   13   14 ar
  22   13   25 1
  23   14   15 ar
  24   14   31 1
  25   15   32 1
  26   16   17 1
  27   16   33 1
  28   17   18 ar
  29   17   22 ar
  30   18   19 ar
  31   18   24 1
  32   19   20 ar
  33   19   34 1
  34   20   21 ar
  35   20   23 1
  36   21   22 ar
  37   21   35 1
  38   22   36 1

#	End of record

