#	Name: ASD04910206
#	Creating user name:	WinNT
#	Creation time:	15. 06. 2019 20:55

#	Modifying user name:	WinNT
#	Modification time:	15. 06. 2019 20:55

#	Program:	/corina/corina34_cracker 3.40 0067  02.08.2006

@<TRIPOS>MOLECULE
ASD04910206
  30   31    0    0    0
SMALL
NO_CHARGES


@<TRIPOS>ATOM
   1 C1            -0.0023     1.4079     0.0189 C.ar    
   2 C2            -0.0116     0.0211     0.0458 C.ar    
   3 C3             1.1830    -0.6790     0.0215 C.ar    
   4 C4             2.3919     0.0119    -0.0299 C.ar    
   5 C5             2.3958     1.3984    -0.0566 C.ar    
   6 C6             1.2023     2.0941    -0.0323 C.ar    
   7 O7            -1.1750     2.0952     0.0370 O.3     
   8 N8             3.6047    -0.6948    -0.0542 N.pl3   
   9 N9             4.6716    -0.4714    -0.9341 N.2     
  10 C10            5.6227    -1.3248    -0.6492 C.2     
  11 C11            5.1931    -2.1182     0.4196 C.2     
  12 C12            3.9520    -1.7074     0.7710 C.2     
  13 C13            5.9762    -3.2297     1.0695 C.3     
  14 F14            7.2184    -3.3558     0.4384 F       
  15 F15            6.1689    -2.9346     2.4234 F       
  16 F16            5.2684    -4.4305     0.9501 F       
  17 C17            3.7027     2.1468    -0.1117 C.3     
  18 O18            1.1763    -2.0381     0.0482 O.3     
  19 C19           -0.0995    -2.6796     0.1012 C.3     
  20 H20           -0.9498    -0.5123     0.0860 H       
  21 H21            1.2072     3.1739    -0.0532 H       
  22 H22           -1.4906     2.3110     0.9252 H       
  23 H23            6.5748    -1.4030    -1.1529 H       
  24 H24            3.3468    -2.1171     1.5662 H       
  25 H25            4.0333     2.2249    -1.1475 H       
  26 H26            3.5670     3.1458     0.3027 H       
  27 H27            4.4530     1.6111     0.4697 H       
  28 H28           -0.6831    -2.4010    -0.7763 H       
  29 H29            0.0378    -3.7608     0.1179 H       
  30 H30           -0.6266    -2.3663     1.0024 H       
@<TRIPOS>BOND
   1    1    2 ar
   2    1    6 ar
   3    1    7 1
   4    2    3 ar
   5    2   20 1
   6    3    4 ar
   7    3   18 1
   8    4    5 ar
   9    4    8 1
  10    5    6 ar
  11    5   17 1
  12    6   21 1
  13    7   22 1
  14    8    9 1
  15    8   12 1
  16    9   10 2
  17   10   11 1
  18   10   23 1
  19   11   12 2
  20   11   13 1
  21   12   24 1
  22   13   14 1
  23   13   15 1
  24   13   16 1
  25   17   25 1
  26   17   26 1
  27   17   27 1
  28   18   19 1
  29   19   28 1
  30   19   29 1
  31   19   30 1

#	End of record

