#	Name: ASD01814039
#	Creating user name:	WinNT
#	Creation time:	15. 06. 2019 19:31

#	Modifying user name:	WinNT
#	Modification time:	15. 06. 2019 19:31

#	Program:	/corina/corina34_cracker 3.40 0067  02.08.2006

@<TRIPOS>MOLECULE
ASD01814039
  48   51    0    0    0
SMALL
NO_CHARGES


@<TRIPOS>ATOM
   1 C1            -0.5576     0.7201     0.2445 C.ar    
   2 C2            -0.2962    -0.6412     0.2301 C.ar    
   3 C3             0.9967    -1.1101     0.1366 C.ar    
   4 C4             2.0586    -0.2143     0.0548 C.ar    
   5 C5             1.7941     1.1663     0.0689 C.ar    
   6 C6             0.4792     1.6286     0.1646 C.ar    
   7 N7             3.3553    -0.6723    -0.0386 N.pl3   
   8 C8             4.4107     0.1483    -0.1187 C.2     
   9 C9             4.2762     1.5218    -0.1142 C.2     
  10 C10            2.9274     2.1040    -0.0184 C.2     
  11 F11            0.2239     2.9552     0.1782 F       
  12 O12            2.7555     3.3104    -0.0108 O.2     
  13 C13            5.4596     2.3887    -0.2029 C.2     
  14 O14            5.3153     3.7290    -0.1975 O.3     
  15 O15            6.5687     1.8971    -0.2812 O.2     
  16 C16            3.5890    -2.1185    -0.0501 C.3     
  17 C17            3.5652    -2.6199    -1.4711 C.ar    
  18 C18            4.7341    -2.6580    -2.2089 C.ar    
  19 C19            4.7157    -3.1165    -3.5115 C.ar    
  20 C20            3.5214    -3.5400    -4.0802 C.ar    
  21 C21            2.3491    -3.5008    -3.3363 C.ar    
  22 C22            2.3754    -3.0461    -2.0325 C.ar    
  23 N23            3.4991    -4.0044    -5.3991 N.am    
  24 C24            4.5417    -4.7078    -5.8836 C.2     
  25 C25            4.4752    -5.2870    -7.2419 C.ar    
  26 O26            5.5367    -4.8661    -5.2034 O.2     
  27 C27            5.5532    -6.0161    -7.7467 C.ar    
  28 C28            5.4844    -6.5543    -9.0150 C.ar    
  29 C29            4.3502    -6.3728    -9.7863 C.ar    
  30 C30            3.2781    -5.6512    -9.2921 C.ar    
  31 C31            3.3318    -5.1121    -8.0233 C.ar    
  32 H32           -1.5765     1.0715     0.3141 H       
  33 H33           -1.1151    -1.3425     0.2932 H       
  34 H34            1.1857    -2.1734     0.1271 H       
  35 H35            5.4001    -0.2791    -0.1890 H       
  36 H36            6.1227     4.2577    -0.2578 H       
  37 H37            4.5607    -2.3331     0.3946 H       
  38 H38            2.8084    -2.6173     0.5243 H       
  39 H39            5.6625    -2.3286    -1.7661 H       
  40 H40            5.6288    -3.1454    -4.0875 H       
  41 H41            1.4188    -3.8290    -3.7757 H       
  42 H42            1.4643    -3.0153    -1.4534 H       
  43 H43            2.7333    -3.8202    -5.9653 H       
  44 H44            6.4392    -6.1582    -7.1457 H       
  45 H45            6.3179    -7.1184    -9.4069 H       
  46 H46            4.3016    -6.7959   -10.7788 H       
  47 H47            2.3957    -5.5131    -9.8993 H       
  48 H48            2.4942    -4.5493    -7.6385 H       
@<TRIPOS>BOND
   1    1    2 ar
   2    1    6 ar
   3    1   32 1
   4    2    3 ar
   5    2   33 1
   6    3    4 ar
   7    3   34 1
   8    4    5 ar
   9    4    7 1
  10    5    6 ar
  11    5   10 1
  12    6   11 1
  13    7    8 1
  14    7   16 1
  15    8    9 2
  16    8   35 1
  17    9   10 1
  18    9   13 1
  19   10   12 2
  20   13   14 1
  21   13   15 2
  22   14   36 1
  23   16   17 1
  24   16   37 1
  25   16   38 1
  26   17   18 ar
  27   17   22 ar
  28   18   19 ar
  29   18   39 1
  30   19   20 ar
  31   19   40 1
  32   20   21 ar
  33   20   23 1
  34   21   22 ar
  35   21   41 1
  36   22   42 1
  37   23   24 am
  38   23   43 1
  39   24   25 1
  40   24   26 2
  41   25   27 ar
  42   25   31 ar
  43   27   28 ar
  44   27   44 1
  45   28   29 ar
  46   28   45 1
  47   29   30 ar
  48   29   46 1
  49   30   31 ar
  50   30   47 1
  51   31   48 1

#	End of record

