#	Name: ASD04230177
#	Creating user name:	WinNT
#	Creation time:	15. 06. 2019 20:48

#	Modifying user name:	WinNT
#	Modification time:	15. 06. 2019 20:48

#	Program:	/corina/corina34_cracker 3.40 0067  02.08.2006

@<TRIPOS>MOLECULE
ASD04230177
  43   46    0    0    0
SMALL
NO_CHARGES


@<TRIPOS>ATOM
   1 C1             0.0761     1.3669     0.8457 C.2     
   2 C2             0.0731    -0.0865     0.6259 C.ar    
   3 C3            -1.1600    -0.7674     0.5508 C.ar    
   4 C4            -2.3850    -0.0737     0.6832 C.ar    
   5 C5            -2.3992     1.3250     0.8947 C.2     
   6 C6            -1.2136     2.0534     0.9852 C.2     
   7 C7             1.2657    -0.7975     0.4917 C.ar    
   8 C8             1.2426    -2.1649     0.2858 C.ar    
   9 C9             0.0460    -2.8502     0.2087 C.ar    
  10 C10           -1.1653    -2.1651     0.3394 C.ar    
  11 C11           -2.4479    -2.8617     0.2634 C.ar    
  12 C12           -3.6265    -2.1273     0.4014 C.ar    
  13 C13           -3.5976    -0.7805     0.6032 C.ar    
  14 O14            1.1245     1.9862     0.9155 O.2     
  15 S15           -2.5052    -4.6031     0.0010 S.3     
  16 C16           -4.2373    -4.8807     0.1671 C.ar    
  17 C17           -5.0540    -4.8785    -0.9576 C.ar    
  18 C18           -6.4107    -5.0968    -0.8241 C.ar    
  19 C19           -6.9578    -5.3172     0.4279 C.ar    
  20 C20           -6.1474    -5.3195     1.5497 C.ar    
  21 C21           -4.7890    -5.1080     1.4224 C.ar    
  22 Br22          -8.8166    -5.6151     0.6061 Br      
  23 C23           -1.2545     3.4687     1.1997 C.1     
  24 N24           -1.2870     4.5914     1.3698 N.1     
  25 C25           -3.6950     2.0264     1.0294 C.2     
  26 O26           -4.2037     2.1572     2.1242 O.2     
  27 O27           -4.3105     2.5199    -0.0625 O.3     
  28 C28           -5.5787     3.1959     0.1446 C.3     
  29 C29           -6.1219     3.6842    -1.1998 C.3     
  30 H30            2.2109    -0.2780     0.5486 H       
  31 H31            2.1728    -2.7040     0.1835 H       
  32 H32            0.0462    -3.9179     0.0467 H       
  33 H33           -4.5779    -2.6355     0.3464 H       
  34 H34           -4.5286    -0.2429     0.7059 H       
  35 H35           -4.6278    -4.7059    -1.9348 H       
  36 H36           -7.0458    -5.0952    -1.6976 H       
  37 H37           -6.5774    -5.4914     2.5254 H       
  38 H38           -4.1571    -5.1099     2.2983 H       
  39 H39           -6.2904     2.5035     0.5941 H       
  40 H40           -5.4321     4.0480     0.8083 H       
  41 H41           -7.0739     4.1917    -1.0444 H       
  42 H42           -5.4102     4.3767    -1.6493 H       
  43 H43           -6.2685     2.8322    -1.8636 H       
@<TRIPOS>BOND
   1    1    2 1
   2    1   14 2
   3    1    6 1
   4    2    3 ar
   5    2    7 ar
   6    3    4 ar
   7    3   10 ar
   8    4    5 1
   9    4   13 ar
  10    5    6 2
  11    5   25 1
  12    6   23 1
  13    7    8 ar
  14    7   30 1
  15    8    9 ar
  16    8   31 1
  17    9   10 ar
  18    9   32 1
  19   10   11 ar
  20   11   12 ar
  21   11   15 1
  22   12   13 ar
  23   12   33 1
  24   13   34 1
  25   15   16 1
  26   16   17 ar
  27   16   21 ar
  28   17   18 ar
  29   17   35 1
  30   18   19 ar
  31   18   36 1
  32   19   20 ar
  33   19   22 1
  34   20   21 ar
  35   20   37 1
  36   21   38 1
  37   23   24 3
  38   25   26 2
  39   25   27 1
  40   27   28 1
  41   28   29 1
  42   28   39 1
  43   28   40 1
  44   29   41 1
  45   29   42 1
  46   29   43 1

#	End of record

