#	Name: ASD04882075
#	Creating user name:	WinNT
#	Creation time:	15. 06. 2019 20:54

#	Modifying user name:	WinNT
#	Modification time:	15. 06. 2019 20:54

#	Program:	/corina/corina34_cracker 3.40 0067  02.08.2006

@<TRIPOS>MOLECULE
ASD04882075
  76   80    0    0    0
SMALL
NO_CHARGES


@<TRIPOS>ATOM
   1 C1             2.1861     1.8463    -0.7998 C.ar    
   2 C2             2.2275     0.4691    -0.7092 C.ar    
   3 C3             1.0490    -0.2514    -0.5598 C.ar    
   4 C4            -0.1672     0.4169    -0.5022 C.ar    
   5 C5            -0.2014     1.7947    -0.5935 C.ar    
   6 C6             0.9733     2.5086    -0.7421 C.ar    
   7 C7            -1.4481    -0.3605    -0.3408 C.3     
   8 N8             1.0872    -1.6446    -0.4683 N.3     
   9 C9             0.6796    -2.0958     0.8696 C.3     
  10 C10            2.4206    -2.1585    -0.8108 C.3     
  11 C11            2.3992    -3.6885    -0.7759 C.3     
  12 N12            1.9917    -4.1397     0.5620 N.3     
  13 C13            0.6582    -3.6258     0.9044 C.3     
  14 C14            2.0297    -5.5287     0.6532 C.ar    
  15 C15            1.2420    -6.3015    -0.1916 C.ar    
  16 C16            2.8646    -6.1441     1.5907 C.ar    
  17 C17            2.9025    -7.5224     1.6807 C.ar    
  18 C18            2.1051    -8.2973     0.8332 C.ar    
  19 C19            1.2765    -7.6760    -0.1048 C.ar    
  20 N20            3.6625    -5.3639     2.4378 N.am    
  21 C21            3.9227    -5.7821     3.6923 C.2     
  22 C22            4.6631    -4.9157     4.6154 C.2     
  23 O23            3.5433    -6.8788     4.0592 O.2     
  24 S24            5.2846    -3.3062     4.2569 S.3     
  25 C25            5.9163    -3.1870     5.8409 C.2     
  26 N26            5.6576    -4.2632     6.5118 N.2     
  27 C27            4.9873    -5.2072     5.9002 C.2     
  28 C28            2.1426    -9.7693     0.9254 C.2     
  29 O29            2.8674   -10.3092     1.7388 O.2     
  30 N30            1.3735   -10.5155     0.1080 N.am    
  31 C31            1.4108   -11.9771     0.1994 C.3     
  32 C32            0.4521   -12.5772    -0.8309 C.3     
  33 C33            0.4910   -14.1037    -0.7354 C.3     
  34 N34           -0.4270   -14.6783    -1.7220 N.am    
  35 C35           -0.0508   -15.0314    -3.0959 C.3     
  36 C36           -1.3833   -15.1722    -3.8648 C.3     
  37 C37           -2.3685   -15.5244    -2.7263 C.3     
  38 C38           -1.7205   -14.9553    -1.4833 C.2     
  39 O39           -2.2875   -14.7690    -0.4275 O.2     
  40 C40            4.6186    -6.5099     6.5621 C.3     
  41 H41            3.1022     2.4073    -0.9114 H       
  42 H42            3.1748    -0.0475    -0.7547 H       
  43 H43           -1.1468     2.3149    -0.5488 H       
  44 H44            0.9438     3.5859    -0.8129 H       
  45 H45           -1.6354    -0.5364     0.7185 H       
  46 H46           -2.2747     0.2087    -0.7662 H       
  47 H47           -1.3609    -1.3160    -0.8579 H       
  48 H48            1.3884    -1.7251     1.6100 H       
  49 H49           -0.3157    -1.7130     1.0949 H       
  50 H50            2.6946    -1.8214    -1.8104 H       
  51 H51            3.1493    -1.7885    -0.0894 H       
  52 H52            1.6904    -4.0592    -1.5163 H       
  53 H53            3.3946    -4.0714    -1.0013 H       
  54 H54            0.3842    -3.9630     1.9041 H       
  55 H55           -0.0705    -3.9958     0.1831 H       
  56 H56            0.6011    -5.8235    -0.9176 H       
  57 H57            3.5469    -7.9999     2.4039 H       
  58 H58            0.6598    -8.2736    -0.7597 H       
  59 H59            4.0276    -4.5228     2.1214 H       
  60 H60            6.4551    -2.3344     6.2272 H       
  61 H61            0.7953   -10.0847    -0.5409 H       
  62 H62            2.4235   -12.3279     0.0009 H       
  63 H63            1.1088   -12.2863     1.2001 H       
  64 H64           -0.5607   -12.2265    -0.6324 H       
  65 H65            0.7541   -12.2680    -1.8316 H       
  66 H66            1.5038   -14.4545    -0.9339 H       
  67 H67            0.1890   -14.4130     0.2653 H       
  68 H68            0.5567   -14.2405    -3.5358 H       
  69 H69            0.4928   -15.9761    -3.1073 H       
  70 H70           -1.6592   -14.2321    -4.3425 H       
  71 H71           -1.3283   -15.9783    -4.5964 H       
  72 H72           -3.3377   -15.0577    -2.9024 H       
  73 H73           -2.4755   -16.6053    -2.6352 H       
  74 H74            3.6480    -6.4088     7.0478 H       
  75 H75            4.5684    -7.2979     5.8106 H       
  76 H76            5.3726    -6.7653     7.3066 H       
@<TRIPOS>BOND
   1    1    2 ar
   2    1    6 ar
   3    1   41 1
   4    2    3 ar
   5    2   42 1
   6    3    4 ar
   7    3    8 1
   8    4    5 ar
   9    4    7 1
  10    5    6 ar
  11    5   43 1
  12    6   44 1
  13    7   45 1
  14    7   46 1
  15    7   47 1
  16    8    9 1
  17    8   10 1
  18    9   13 1
  19    9   48 1
  20    9   49 1
  21   10   11 1
  22   10   50 1
  23   10   51 1
  24   11   12 1
  25   11   52 1
  26   11   53 1
  27   12   13 1
  28   12   14 1
  29   13   54 1
  30   13   55 1
  31   14   15 ar
  32   14   16 ar
  33   15   19 ar
  34   15   56 1
  35   16   17 ar
  36   16   20 1
  37   17   18 ar
  38   17   57 1
  39   18   19 ar
  40   18   28 1
  41   19   58 1
  42   20   21 am
  43   20   59 1
  44   21   22 1
  45   21   23 2
  46   22   24 1
  47   22   27 2
  48   24   25 1
  49   25   26 2
  50   25   60 1
  51   26   27 1
  52   27   40 1
  53   28   29 2
  54   28   30 am
  55   30   31 1
  56   30   61 1
  57   31   32 1
  58   31   62 1
  59   31   63 1
  60   32   33 1
  61   32   64 1
  62   32   65 1
  63   33   34 1
  64   33   66 1
  65   33   67 1
  66   34   35 1
  67   34   38 am
  68   35   36 1
  69   35   68 1
  70   35   69 1
  71   36   37 1
  72   36   70 1
  73   36   71 1
  74   37   38 1
  75   37   72 1
  76   37   73 1
  77   38   39 2
  78   40   74 1
  79   40   75 1
  80   40   76 1

#	End of record

