#	Name: ASD03090891
#	Creating user name:	WinNT
#	Creation time:	15. 06. 2019 20:29

#	Modifying user name:	WinNT
#	Modification time:	15. 06. 2019 20:29

#	Program:	/corina/corina34_cracker 3.40 0067  02.08.2006

@<TRIPOS>MOLECULE
ASD03090891
  39   42    0    0    0
SMALL
NO_CHARGES


@<TRIPOS>ATOM
   1 N1            -0.0189     1.4674    -0.0879 N.am    
   2 C2             0.0008    -0.0023    -0.1218 C.3     
   3 C3             1.4804    -0.4405    -0.1357 C.3     
   4 C4             2.2128     0.7897     0.4621 C.3     
   5 C5             1.3707     1.9593    -0.1060 C.3     
   6 C6            -1.1244     2.2375    -0.0522 C.2     
   7 O7            -2.2276     1.7200    -0.0459 O.2     
   8 N8            -1.0106     3.5699    -0.0236 N.2     
   9 S9            -3.7365     3.7926     0.0268 S.3     
  10 C10           -2.1001     4.3290     0.0116 C.2     
  11 N11           -2.1502     5.6889     0.0435 N.pl3   
  12 C12           -3.3644     6.2619     0.0770 C.2     
  13 C13           -4.4284     5.4238     0.0757 C.2     
  14 C14           -5.7975     5.7748     0.1057 C.2     
  15 O15           -6.6471     4.9071     0.0997 O.2     
  16 O16            2.3090     8.9427     0.0148 O.3     
  17 C17            1.6353    10.1790     0.3163 C.3     
  18 O18            0.2882     9.9548    -0.1399 O.3     
  19 C19            0.0948     8.6060    -0.0567 C.ar    
  20 C20            1.3375     7.9831     0.0384 C.ar    
  21 C21           -1.0609     7.8440    -0.0549 C.ar    
  22 C22           -0.9800     6.4612     0.0420 C.ar    
  23 C23            0.2594     5.8435     0.1369 C.ar    
  24 C24            1.4137     6.6033     0.1355 C.ar    
  25 F25            1.6534    10.4255     1.6933 F       
  26 F26            2.2205    11.2407    -0.3821 F       
  27 H27           -0.4954    -0.4002     0.7634 H       
  28 H28           -0.5000    -0.3591    -1.0219 H       
  29 H29            1.6281    -1.3196     0.4916 H       
  30 H30            1.8164    -0.6317    -1.1548 H       
  31 H31            2.1762     0.7750     1.5514 H       
  32 H32            3.2424     0.8416     0.1080 H       
  33 H33            1.6789     2.1882    -1.1261 H       
  34 H34            1.4694     2.8406     0.5278 H       
  35 H35           -3.4860     7.3347     0.1039 H       
  36 H36           -6.0878     6.8147     0.1341 H       
  37 H37           -2.0251     8.3249    -0.1282 H       
  38 H38            0.3216     4.7679     0.2122 H       
  39 H39            2.3769     6.1204     0.2093 H       
@<TRIPOS>BOND
   1    1    2 1
   2    1    5 1
   3    1    6 am
   4    2    3 1
   5    2   27 1
   6    2   28 1
   7    3    4 1
   8    3   29 1
   9    3   30 1
  10    4    5 1
  11    4   31 1
  12    4   32 1
  13    5   33 1
  14    5   34 1
  15    6    7 2
  16    6    8 1
  17    8   10 2
  18    9   10 1
  19    9   13 1
  20   10   11 1
  21   11   12 1
  22   11   22 1
  23   12   13 2
  24   12   35 1
  25   13   14 1
  26   14   15 2
  27   14   36 1
  28   16   17 1
  29   16   20 1
  30   17   18 1
  31   17   25 1
  32   17   26 1
  33   18   19 1
  34   19   20 ar
  35   19   21 ar
  36   20   24 ar
  37   21   22 ar
  38   21   37 1
  39   22   23 ar
  40   23   24 ar
  41   23   38 1
  42   24   39 1

#	End of record

