#	Name: ASD00071010
#	Creating user name:	WinNT
#	Creation time:	15. 06. 2019 18:30

#	Modifying user name:	WinNT
#	Modification time:	15. 06. 2019 18:30

#	Program:	/corina/corina34_cracker 3.40 0067  02.08.2006

@<TRIPOS>MOLECULE
ASD00071010
  46   48    0    0    0
SMALL
NO_CHARGES


@<TRIPOS>ATOM
   1 N1             1.4559     1.3284    -1.1742 N.ar    
   2 C2             1.4341     0.0115    -1.1653 C.ar    
   3 C3             1.2217    -0.7110     0.0179 C.ar    
   4 C4             1.0325    -0.0484     1.1929 C.ar    
   5 C5             1.0575     1.3614     1.1766 C.ar    
   6 C6             0.8701     2.1064     2.3507 C.ar    
   7 C7             0.9011     3.4674     2.2973 C.ar    
   8 C8             1.1160     4.1299     1.0916 C.ar    
   9 C9             1.3010     3.4377    -0.0665 C.ar    
  10 C10            1.2762     2.0330    -0.0509 C.ar    
  11 N11            1.6252    -0.6769    -2.3539 N.pl3   
  12 C12            1.2024    -2.2176    -0.0107 C.3     
  13 C13            1.0776    -2.7451     1.3954 C.ar    
  14 C14           -0.1737    -2.8844     1.9764 C.ar    
  15 C15           -0.2859    -3.3704     3.2712 C.ar    
  16 C16            0.8481    -3.7154     3.9817 C.ar    
  17 C17            2.0960    -3.5775     3.4051 C.ar    
  18 C18            2.2131    -3.0973     2.1081 C.ar    
  19 O19            3.4405    -2.9676     1.5393 O.3     
  20 C20            4.5665    -3.3495     2.3318 C.3     
  21 O21           -1.2891    -2.5449     1.2784 O.3     
  22 C22           -2.5335    -2.5961     1.9790 C.3     
  23 C23           -3.5312    -1.6438     1.3168 C.3     
  24 C24           -3.0847    -4.0228     1.9360 C.3     
  25 H25            0.8673    -0.5889     2.1132 H       
  26 H26            0.7019     1.6037     3.2917 H       
  27 H27            0.7568     4.0398     3.2017 H       
  28 H28            1.1360     5.2096     1.0745 H       
  29 H29            1.4658     3.9666    -0.9935 H       
  30 H30            1.6998    -0.1902    -3.1897 H       
  31 H31            1.6842    -1.6451    -2.3496 H       
  32 H32            0.3537    -2.5589    -0.6034 H       
  33 H33            2.1273    -2.5844    -0.4556 H       
  34 H34           -1.2603    -3.4787     3.7242 H       
  35 H35            0.7587    -4.0931     4.9895 H       
  36 H36            2.9807    -3.8475     3.9625 H       
  37 H37            4.4794    -4.4014     2.6038 H       
  38 H38            5.4819    -3.1966     1.7601 H       
  39 H39            4.5972    -2.7418     3.2362 H       
  40 H40           -2.3793    -2.2973     3.0158 H       
  41 H41           -3.6855    -1.9426     0.2800 H       
  42 H42           -4.4804    -1.6829     1.8512 H       
  43 H43           -3.1386    -0.6274     1.3474 H       
  44 H44           -3.2389    -4.3216     0.8992 H       
  45 H45           -2.3739    -4.7012     2.4078 H       
  46 H46           -4.0338    -4.0618     2.4705 H       
@<TRIPOS>BOND
   1    1    2 ar
   2    1   10 ar
   3    2    3 ar
   4    2   11 1
   5    3    4 ar
   6    3   12 1
   7    4    5 ar
   8    4   25 1
   9    5    6 ar
  10    5   10 ar
  11    6    7 ar
  12    6   26 1
  13    7    8 ar
  14    7   27 1
  15    8    9 ar
  16    8   28 1
  17    9   10 ar
  18    9   29 1
  19   11   30 1
  20   11   31 1
  21   12   13 1
  22   12   32 1
  23   12   33 1
  24   13   14 ar
  25   13   18 ar
  26   14   15 ar
  27   14   21 1
  28   15   16 ar
  29   15   34 1
  30   16   17 ar
  31   16   35 1
  32   17   18 ar
  33   17   36 1
  34   18   19 1
  35   19   20 1
  36   20   37 1
  37   20   38 1
  38   20   39 1
  39   21   22 1
  40   22   23 1
  41   22   24 1
  42   22   40 1
  43   23   41 1
  44   23   42 1
  45   23   43 1
  46   24   44 1
  47   24   45 1
  48   24   46 1

#	End of record

