#	Name: ASD05250006
#	Creating user name:	WinNT
#	Creation time:	15. 06. 2019 20:57

#	Modifying user name:	WinNT
#	Modification time:	15. 06. 2019 20:57

#	Program:	/corina/corina34_cracker 3.40 0067  02.08.2006

@<TRIPOS>MOLECULE
ASD05250006
  47   48    0    0    0
SMALL
NO_CHARGES


@<TRIPOS>ATOM
   1 C1            -0.0166     1.3758     0.0096 C.ar    
   2 C2             0.0021    -0.0041     0.0020 C.ar    
   3 C3            -1.2040    -0.7173     0.0097 C.ar    
   4 C4            -2.4214    -0.0254     0.0250 C.ar    
   5 C5            -2.4300     1.3518     0.0325 C.ar    
   6 C6            -1.2339     2.0575     0.0307 C.ar    
   7 O7            -1.2491     3.4153     0.0386 O.3     
   8 C8            -1.1913    -2.1850     0.0012 C.2     
   9 C9            -2.3594    -2.8730     0.0087 C.2     
  10 C10           -2.3473    -4.2807     0.0005 C.2     
  11 C11           -3.6458    -5.0454     0.0088 C.3     
  12 O12           -1.2902    -4.8789    -0.0132 O.2     
  13 C13           -3.3577    -6.5246    -0.0024 C.2     
  14 C14           -4.4198    -7.4487     0.0027 C.2     
  15 O15           -2.2091    -6.9196    -0.0159 O.2     
  16 C16           -4.1607    -8.7792    -0.0074 C.2     
  17 C17           -5.2680    -9.7427    -0.0021 C.ar    
  18 C18           -6.5930    -9.2897     0.0133 C.ar    
  19 C19           -5.0027   -11.1184    -0.0184 C.ar    
  20 C20           -6.0483   -12.0190    -0.0138 C.ar    
  21 C21           -7.3656   -11.5595     0.0065 C.ar    
  22 C22           -7.6300   -10.1962     0.0178 C.ar    
  23 O23           -8.3924   -12.4481     0.0106 O.3     
  24 O24            1.1519     2.0714     0.0022 O.3     
  25 C25            2.3606     1.3092    -0.0134 C.3     
  26 O26           -5.7947   -13.3550    -0.0296 O.3     
  27 C27           -4.4229   -13.7547    -0.0505 C.3     
  28 H28            0.9437    -0.5328    -0.0102 H       
  29 H29           -3.3531    -0.5716     0.0306 H       
  30 H30           -3.3694     1.8844     0.0440 H       
  31 H31           -1.2492     3.8035     0.9242 H       
  32 H32           -0.2515    -2.7169    -0.0110 H       
  33 H33           -3.2993    -2.3411     0.0209 H       
  34 H34           -4.2109    -4.7921     0.9058 H       
  35 H35           -4.2283    -4.7820    -0.8740 H       
  36 H36           -5.4411    -7.0975     0.0146 H       
  37 H37           -3.1394    -9.1304    -0.0194 H       
  38 H38           -6.8017    -8.2301     0.0222 H       
  39 H39           -3.9827   -11.4730    -0.0349 H       
  40 H40           -8.6515    -9.8459     0.0335 H       
  41 H41           -8.6791   -12.7138     0.8950 H       
  42 H42            2.4023     0.6760     0.8728 H       
  43 H43            2.3853     0.6856    -0.9071 H       
  44 H44            3.2160     1.9847    -0.0180 H       
  45 H45           -3.9415   -13.3546    -0.9429 H       
  46 H46           -3.9192   -13.3714     0.8369 H       
  47 H47           -4.3617   -14.8429    -0.0616 H       
@<TRIPOS>BOND
   1    1    2 ar
   2    1   24 1
   3    1    6 ar
   4    2    3 ar
   5    2   28 1
   6    3    4 ar
   7    3    8 1
   8    4    5 ar
   9    4   29 1
  10    5    6 ar
  11    5   30 1
  12    6    7 1
  13    7   31 1
  14    8    9 2
  15    8   32 1
  16    9   10 1
  17    9   33 1
  18   10   11 1
  19   10   12 2
  20   11   13 1
  21   11   34 1
  22   11   35 1
  23   13   14 1
  24   13   15 2
  25   14   16 2
  26   14   36 1
  27   16   17 1
  28   16   37 1
  29   17   18 ar
  30   17   19 ar
  31   18   22 ar
  32   18   38 1
  33   19   20 ar
  34   19   39 1
  35   20   21 ar
  36   20   26 1
  37   21   22 ar
  38   21   23 1
  39   22   40 1
  40   23   41 1
  41   24   25 1
  42   25   42 1
  43   25   43 1
  44   25   44 1
  45   26   27 1
  46   27   45 1
  47   27   46 1
  48   27   47 1

#	End of record

