#	Name: ASD01903282
#	Creating user name:	WinNT
#	Creation time:	15. 06. 2019 19:54

#	Modifying user name:	WinNT
#	Modification time:	15. 06. 2019 19:54

#	Program:	/corina/corina34_cracker 3.40 0067  02.08.2006

@<TRIPOS>MOLECULE
ASD01903282
  45   48    0    0    0
SMALL
NO_CHARGES


@<TRIPOS>ATOM
   1 C1            -0.0090     1.3701     0.0430 C.ar    
   2 C2            -0.0811     0.1157    -0.5410 C.ar    
   3 C3             1.0387    -0.4068    -1.1695 C.ar    
   4 C4             2.1987     0.3511    -1.1910 C.ar    
   5 C5             2.1992     1.6049    -0.5833 C.ar    
   6 N6             1.1051     2.0684     0.0081 N.ar    
   7 C7             3.4310     2.4275    -0.5974 C.2     
   8 O8             4.4356     2.0080    -1.1376 O.2     
   9 N9             3.4376     3.6411    -0.0113 N.am    
  10 C10            4.6290     4.3706     0.0738 C.ar    
  11 C11            4.6043     5.7554    -0.0278 C.ar    
  12 C12            5.7796     6.4748     0.0567 C.ar    
  13 C13            6.9861     5.8139     0.2432 C.ar    
  14 C14            7.0112     4.4292     0.3448 C.ar    
  15 C15            5.8359     3.7100     0.2657 C.ar    
  16 N16            8.1809     6.5447     0.3232 N.am    
  17 C17            8.9509     6.8627    -0.7331 C.2     
  18 C18           10.1174     7.6320    -0.2511 C.ar    
  19 C19            9.9627     7.7317     1.1466 C.ar    
  20 C20            8.7045     7.0247     1.4657 C.2     
  21 O21            8.7254     6.5669    -1.8892 O.2     
  22 O22            8.2271     6.8928     2.5746 O.2     
  23 C23           12.1574     8.8816    -0.1007 C.ar    
  24 C24           12.0054     8.9800     1.2696 C.ar    
  25 C25           10.9108     8.4070     1.8983 C.ar    
  26 C26           11.2168     8.2094    -0.8656 C.ar    
  27 C27            5.7529     7.9775    -0.0540 C.3     
  28 C28           11.3896     8.1067    -2.3591 C.3     
  29 F29            4.4345     8.4082    -0.2374 F       
  30 F30            6.2687     8.5407     1.1182 F       
  31 F31            6.5306     8.3785    -1.1455 F       
  32 H32           -0.8807     1.7820     0.5295 H       
  33 H33           -1.0006    -0.4498    -0.5065 H       
  34 H34            1.0078    -1.3824    -1.6317 H       
  35 H35            3.0898    -0.0249    -1.6715 H       
  36 H36            2.6167     4.0090     0.3515 H       
  37 H37            3.6657     6.2695    -0.1732 H       
  38 H38            7.9500     3.9154     0.4899 H       
  39 H39            5.8555     2.6330     0.3447 H       
  40 H40           13.0143     9.3326    -0.5789 H       
  41 H41           12.7452     9.5060     1.8548 H       
  42 H42           10.7973     8.4869     2.9693 H       
  43 H43           10.9045     8.9560    -2.8402 H       
  44 H44           12.4519     8.1091    -2.6030 H       
  45 H45           10.9372     7.1808    -2.7144 H       
@<TRIPOS>BOND
   1    1    2 ar
   2    1    6 ar
   3    1   32 1
   4    2    3 ar
   5    2   33 1
   6    3    4 ar
   7    3   34 1
   8    4    5 ar
   9    4   35 1
  10    5    6 ar
  11    5    7 1
  12    7    8 2
  13    7    9 am
  14    9   10 1
  15    9   36 1
  16   10   11 ar
  17   10   15 ar
  18   11   12 ar
  19   11   37 1
  20   12   27 1
  21   12   13 ar
  22   13   14 ar
  23   13   16 1
  24   14   15 ar
  25   14   38 1
  26   15   39 1
  27   16   17 am
  28   16   20 am
  29   17   18 1
  30   17   21 2
  31   18   19 ar
  32   18   26 ar
  33   19   20 1
  34   19   25 ar
  35   20   22 2
  36   23   24 ar
  37   23   26 ar
  38   23   40 1
  39   24   25 ar
  40   24   41 1
  41   25   42 1
  42   26   28 1
  43   27   29 1
  44   27   30 1
  45   27   31 1
  46   28   43 1
  47   28   44 1
  48   28   45 1

#	End of record

