#	Name: ASD01882494
#	Creating user name:	WinNT
#	Creation time:	15. 06. 2019 19:44

#	Modifying user name:	WinNT
#	Modification time:	15. 06. 2019 19:44

#	Program:	/corina/corina34_cracker 3.40 0067  02.08.2006

@<TRIPOS>MOLECULE
ASD01882494
  52   56    0    0    0
SMALL
NO_CHARGES


@<TRIPOS>ATOM
   1 C1             0.7325     1.4200     1.0811 C.2     
   2 C2             0.7681     0.0147     1.0979 C.2     
   3 C3             1.2066    -0.6546    -0.0130 C.2     
   4 C4             1.6135     0.0753    -1.1506 C.2     
   5 C5             1.5712     1.4222    -1.1448 C.2     
   6 N6             1.1358     2.0991    -0.0428 N.pl3   
   7 N7             0.5215     3.5067     1.4678 N.2     
   8 N8             0.3653     2.3319     1.9687 N.2     
   9 C9             0.9860     3.4230     0.2489 C.2     
  10 N10            1.2514    -2.0467    -0.0204 N.pl3   
  11 C11            2.5331    -2.7538    -0.1467 C.3     
  12 C12            2.4377    -3.7432    -1.3123 C.3     
  13 C13            1.2317    -4.6611    -1.0996 C.3     
  14 C14           -0.0494    -3.8245    -1.0701 C.3     
  15 C15            0.0184    -2.8360     0.1039 C.3     
  16 C16            1.1545    -5.6580    -2.2271 C.ar    
  17 C17            1.2242    -7.0124    -1.9584 C.ar    
  18 C18            1.1534    -7.9267    -2.9925 C.ar    
  19 C19            1.0124    -7.4868    -4.2956 C.ar    
  20 C20            0.9418    -6.1329    -4.5642 C.ar    
  21 C21            1.0083    -5.2185    -3.5293 C.ar    
  22 C22            1.2304    -9.4029    -2.6996 C.3     
  23 F23           -0.0579    -9.9028    -2.4811 F       
  24 F24            1.8090   -10.0647    -3.7880 F       
  25 F25            2.0115    -9.6118    -1.5579 F       
  26 C26            1.2967     4.5782    -0.6677 C.3     
  27 C27            0.0527     4.9285    -1.4865 C.3     
  28 C28            0.1286     6.1559    -2.3968 C.3     
  29 C29            0.1330     4.7517    -3.0041 C.3     
  30 Cl30           0.2630    -0.8607     2.5093 Cl      
  31 H31            1.9606    -0.4479    -2.0294 H       
  32 H32            1.8851     1.9710    -2.0203 H       
  33 H33            3.3292    -2.0352    -0.3416 H       
  34 H34            2.7442    -3.2950     0.7756 H       
  35 H35            2.3169    -3.1945    -2.2463 H       
  36 H36            3.3473    -4.3421    -1.3566 H       
  37 H37            1.3412    -5.1911    -0.1534 H       
  38 H38           -0.1467    -3.2750    -2.0064 H       
  39 H39           -0.9099    -4.4812    -0.9419 H       
  40 H40            0.0286    -3.3837     1.0463 H       
  41 H41           -0.8453    -2.1717     0.0744 H       
  42 H42            1.3343    -7.3560    -0.9404 H       
  43 H43            0.9578    -8.2012    -5.1038 H       
  44 H44            0.8320    -5.7893    -5.5822 H       
  45 H45            0.9493    -4.1606    -3.7388 H       
  46 H46            1.5964     5.4422    -0.0745 H       
  47 H47            2.1081     4.3002    -1.3404 H       
  48 H48           -0.9020     4.7176    -1.0047 H       
  49 H49           -0.7762     6.7522    -2.5141 H       
  50 H50            1.0649     6.7139    -2.4123 H       
  51 H51            1.0721     4.3857    -3.4192 H       
  52 H52           -0.7690     4.4241    -3.5211 H       
@<TRIPOS>BOND
   1    1    2 1
   2    1    6 1
   3    1    8 2
   4    2    3 2
   5    2   30 1
   6    3    4 1
   7    3   10 1
   8    4    5 2
   9    4   31 1
  10    5    6 1
  11    5   32 1
  12    6    9 1
  13    7    8 1
  14    7    9 2
  15    9   26 1
  16   10   11 1
  17   10   15 1
  18   11   12 1
  19   11   33 1
  20   11   34 1
  21   12   13 1
  22   12   35 1
  23   12   36 1
  24   13   14 1
  25   13   16 1
  26   13   37 1
  27   14   15 1
  28   14   38 1
  29   14   39 1
  30   15   40 1
  31   15   41 1
  32   16   17 ar
  33   16   21 ar
  34   17   18 ar
  35   17   42 1
  36   18   19 ar
  37   18   22 1
  38   19   20 ar
  39   19   43 1
  40   20   21 ar
  41   20   44 1
  42   21   45 1
  43   22   23 1
  44   22   24 1
  45   22   25 1
  46   26   27 1
  47   26   46 1
  48   26   47 1
  49   27   28 1
  50   27   29 1
  51   27   48 1
  52   28   29 1
  53   28   49 1
  54   28   50 1
  55   29   51 1
  56   29   52 1

#	End of record

