#	Name: ASD00841776
#	Creating user name:	WinNT
#	Creation time:	15. 06. 2019 18:42

#	Modifying user name:	WinNT
#	Modification time:	15. 06. 2019 18:42

#	Program:	/corina/corina34_cracker 3.40 0067  02.08.2006

@<TRIPOS>MOLECULE
ASD00841776
  86   91    0    0    0
SMALL
NO_CHARGES


@<TRIPOS>ATOM
   1 F1            -0.0795    -3.1472     4.7185 F       
   2 C2            -0.0052     1.3862     0.0369 C.ar    
   3 C3             0.0093    -0.0007     0.0189 C.ar    
   4 C4             1.2193    -0.6794    -0.0012 C.ar    
   5 C5             2.4062     0.0272    -0.0032 C.ar    
   6 C6             2.3891     1.4098     0.0151 C.ar    
   7 C7             1.1848     2.0884     0.0347 C.ar    
   8 C8             1.2387    -2.1862    -0.0202 C.3     
   9 C9             0.4942    -2.7107    -1.2292 C.2     
  10 N10            2.6178    -2.6804    -0.0126 N.am    
  11 C11            3.4633    -2.3341    -1.0034 C.2     
  12 N12            4.7589    -2.7002    -0.9424 N.am    
  13 O13            3.0572    -1.6913    -1.9522 O.2     
  14 C14            5.2906    -3.3760     0.2490 C.3     
  15 C15            6.5170    -2.6050     0.7471 C.3     
  16 C16            7.5240    -2.4623    -0.3965 C.3     
  17 C17            6.8886    -1.6712    -1.5422 C.3     
  18 C18            5.6651    -2.4366    -2.0685 C.3     
  19 C19            8.7653    -1.7227     0.1066 C.3     
  20 C20            9.4032    -2.5140     1.2519 C.3     
  21 C21           10.6775    -1.8011     1.7101 C.3     
  22 N22           11.6132    -1.6960     0.5833 N.3     
  23 C23           11.0406    -0.9002    -0.5100 C.3     
  24 C24            9.7771    -1.5861    -1.0345 C.3     
  25 H25           12.4984    -1.3152     0.8826 H       
  26 O26            0.7741    -2.5064    -2.3916 O.2     
  27 N27           -0.5343    -3.4453    -0.7739 N.am    
  28 C28            0.4679    -2.7406     1.1565 C.ar    
  29 C29           -0.5794    -3.4839     0.6218 C.ar    
  30 C30            0.6362    -2.6266     2.5189 C.ar    
  31 C31           -0.2432    -3.2570     3.3819 C.ar    
  32 C32           -1.3020    -4.0086     2.8623 C.ar    
  33 C33           -1.4665    -4.1202     1.4820 C.ar    
  34 C34           -0.9901    -5.8308    -2.0685 C.ar    
  35 C35            0.1887    -5.9872    -2.7828 C.ar    
  36 C36           -1.6643    -6.9415    -1.5987 C.ar    
  37 C37           -1.1647    -8.2079    -1.8395 C.ar    
  38 C38            0.0102    -8.3664    -2.5513 C.ar    
  39 C39            0.6877    -7.2593    -3.0235 C.ar    
  40 H40            0.3984    -9.3568    -2.7381 H       
  41 O41            0.8535    -4.8963    -3.2464 O.3     
  42 C42            2.0605    -5.1328    -3.9738 C.3     
  43 S43           -1.6232    -4.2168    -1.7545 S.o2    
  44 O44           -2.8038    -4.3919    -0.9833 O.2     
  45 O45           -1.6018    -3.5285    -2.9975 O.2     
  46 O46           -1.1598    -0.6937     0.0214 O.3     
  47 C47           -3.5696    -0.8752     0.0427 C.3     
  48 C48           -2.3670     0.0707     0.0431 C.3     
  49 C49           -2.2168    -4.6642     3.7477 C.1     
  50 N50           -2.9425    -5.1844     4.4501 N.1     
  51 H51           -0.9458     1.9168     0.0480 H       
  52 H52            3.3483    -0.5006    -0.0189 H       
  53 H53            3.3181     1.9605     0.0142 H       
  54 H54            1.1740     3.1682     0.0490 H       
  55 H55            2.9224    -3.2570     0.7056 H       
  56 H56            4.5292    -3.3947     1.0288 H       
  57 H57            5.5791    -4.3954    -0.0074 H       
  58 H58            6.2112    -1.6159     1.0880 H       
  59 H59            6.9780    -3.1482     1.5720 H       
  60 H60            7.8107    -3.4515    -0.7535 H       
  61 H61            6.5792    -0.6909    -1.1797 H       
  62 H62            7.6140    -1.5498    -2.3467 H       
  63 H63            5.9868    -3.3781    -2.5137 H       
  64 H64            5.1506    -1.8334    -2.8165 H       
  65 H65            8.4802    -0.7327     0.4624 H       
  66 H66            8.7025    -2.5779     2.0844 H       
  67 H67            9.6516    -3.5175     0.9067 H       
  68 H68           10.4264    -0.8026     2.0680 H       
  69 H69           11.1418    -2.3695     2.5160 H       
  70 H70           10.7879     0.0940    -0.1416 H       
  71 H71           11.7687    -0.8143    -1.3166 H       
  72 H72           10.0315    -2.5751    -1.4156 H       
  73 H73            9.3437    -0.9872    -1.8354 H       
  74 H74            1.4558    -2.0448     2.9142 H       
  75 H75           -2.2843    -4.7007     1.0812 H       
  76 H76           -2.5821    -6.8203    -1.0425 H       
  77 H77           -1.6928    -9.0748    -1.4707 H       
  78 H78            1.6049    -7.3837    -3.5800 H       
  79 H79            2.7710    -5.6600    -3.3372 H       
  80 H80            1.8419    -5.7382    -4.8534 H       
  81 H81            2.4893    -4.1804    -4.2857 H       
  82 H82           -3.5463    -1.4922    -0.8556 H       
  83 H83           -3.5289    -1.5150     0.9242 H       
  84 H84           -4.4904    -0.2921     0.0592 H       
  85 H85           -2.3903     0.6877     0.9413 H       
  86 H86           -2.4077     0.7105    -0.8384 H       
@<TRIPOS>BOND
   1    1   31 1
   2    2    3 ar
   3    2    7 ar
   4    2   51 1
   5    3    4 ar
   6    3   46 1
   7    4    5 ar
   8    4    8 1
   9    5    6 ar
  10    5   52 1
  11    6    7 ar
  12    6   53 1
  13    7   54 1
  14    8    9 1
  15    8   10 1
  16    8   28 1
  17    9   26 2
  18    9   27 am
  19   10   11 am
  20   10   55 1
  21   11   12 am
  22   11   13 2
  23   12   14 1
  24   12   18 1
  25   14   15 1
  26   14   56 1
  27   14   57 1
  28   15   16 1
  29   15   58 1
  30   15   59 1
  31   16   17 1
  32   16   19 1
  33   16   60 1
  34   17   18 1
  35   17   61 1
  36   17   62 1
  37   18   63 1
  38   18   64 1
  39   19   20 1
  40   19   24 1
  41   19   65 1
  42   20   21 1
  43   20   66 1
  44   20   67 1
  45   21   22 1
  46   21   68 1
  47   21   69 1
  48   22   23 1
  49   22   25 1
  50   23   24 1
  51   23   70 1
  52   23   71 1
  53   24   72 1
  54   24   73 1
  55   27   43 am
  56   27   29 1
  57   28   29 ar
  58   28   30 ar
  59   29   33 ar
  60   30   31 ar
  61   30   74 1
  62   31   32 ar
  63   32   33 ar
  64   32   49 1
  65   33   75 1
  66   34   35 ar
  67   34   36 ar
  68   34   43 1
  69   35   41 1
  70   35   39 ar
  71   36   37 ar
  72   36   76 1
  73   37   38 ar
  74   37   77 1
  75   38   39 ar
  76   38   40 1
  77   39   78 1
  78   41   42 1
  79   42   79 1
  80   42   80 1
  81   42   81 1
  82   43   44 2
  83   43   45 2
  84   46   48 1
  85   47   48 1
  86   47   82 1
  87   47   83 1
  88   47   84 1
  89   48   85 1
  90   48   86 1
  91   49   50 3

#	End of record

