#	Name: ASD03240801
#	Creating user name:	WinNT
#	Creation time:	15. 06. 2019 20:35

#	Modifying user name:	WinNT
#	Modification time:	15. 06. 2019 20:35

#	Program:	/corina/corina34_cracker 3.40 0067  02.08.2006

@<TRIPOS>MOLECULE
ASD03240801
  71   78    0    0    0
SMALL
NO_CHARGES


@<TRIPOS>ATOM
   1 C1            -0.0470     1.2460     0.1175 C.3     
   2 C2             0.1513    -0.2777     0.0552 C.3     
   3 C3             1.5491    -0.0412     0.6511 C.3     
   4 C4             1.4840     1.3693     0.0418 C.3     
   5 O5            -0.7216     1.7825    -1.0222 O.3     
   6 C6             2.6191    -0.9120     0.0447 C.ar    
   7 C7             3.7104    -1.2927     0.8051 C.ar    
   8 C8             4.6936    -2.0895     0.2554 C.ar    
   9 C9             4.5854    -2.5116    -1.0697 C.ar    
  10 C10            3.4825    -2.1247    -1.8311 C.ar    
  11 C11            2.5033    -1.3320    -1.2684 C.ar    
  12 C12           10.1755    -4.5115    -1.9787 C.2     
  13 N13            9.9137    -5.4737    -2.8754 N.2     
  14 C14            8.6971    -5.7264    -3.2889 C.2     
  15 C15            7.5903    -4.9351    -2.7576 C.ar    
  16 C16            7.8742    -3.9244    -1.8138 C.ar    
  17 N17            9.1901    -3.7328    -1.4387 N.pl3   
  18 C18            6.2685    -5.1552    -3.1596 C.ar    
  19 C19            5.2765    -4.3549    -2.6021 C.ar    
  20 C20            5.6374    -3.3664    -1.6659 C.ar    
  21 N21            6.9006    -3.1870    -1.3093 N.ar    
  22 N22            9.7855    -2.8336    -0.5462 N.2     
  23 C23           11.0775    -3.0371    -0.5270 C.2     
  24 C24           11.3829    -4.0788    -1.4142 C.2     
  25 C25           14.9479    -4.3815    -2.5658 C.ar    
  26 C26           13.7065    -3.8351    -2.3195 C.ar    
  27 C27           12.7294    -4.6224    -1.6992 C.ar    
  28 C28           13.0614    -5.9381    -1.3555 C.ar    
  29 C29           14.3276    -6.4037    -1.6389 C.ar    
  30 N30           15.2197    -5.6275    -2.2253 N.ar    
  31 C31            3.8573    -4.5400    -2.9888 C.ar    
  32 C32            3.4999    -4.5909    -4.3352 C.ar    
  33 C33            2.1773    -4.7639    -4.6893 C.ar    
  34 C34            1.2070    -4.8861    -3.7110 C.ar    
  35 C35            1.5557    -4.8358    -2.3733 C.ar    
  36 C36            2.8759    -4.6695    -2.0073 C.ar    
  37 C37           12.0741    -2.2738     0.3068 C.3     
  38 C38           -0.6363     1.7336     1.4426 C.3     
  39 C39           -0.7319     3.2452     1.6595 C.3     
  40 C40           -1.9987     2.4285     1.3967 C.3     
  41 N41            1.5713    -0.0472     2.1199 N.3     
  42 H42           -0.5163    -0.8323     0.7146 H       
  43 H43            0.1708    -0.6743    -0.9599 H       
  44 H44            1.8678     1.4229    -0.9770 H       
  45 H45            1.8922     2.1444     0.6903 H       
  46 H46           -0.3465     1.5035    -1.8687 H       
  47 H47            3.7930    -0.9652     1.8309 H       
  48 H48            5.5454    -2.3855     0.8498 H       
  49 H49            3.3933    -2.4480    -2.8577 H       
  50 H50            1.6469    -1.0351    -1.8556 H       
  51 H51            8.5151    -6.5072    -4.0124 H       
  52 H52            6.0258    -5.9223    -3.8800 H       
  53 H53           15.7070    -3.7834    -3.0480 H       
  54 H54           13.4912    -2.8147    -2.6005 H       
  55 H55           12.3366    -6.5787    -0.8752 H       
  56 H56           14.5934    -7.4173    -1.3773 H       
  57 H57            4.2566    -4.4949    -5.0998 H       
  58 H58            1.8993    -4.8035    -5.7321 H       
  59 H59            0.1731    -5.0209    -3.9927 H       
  60 H60            0.7938    -4.9315    -1.6138 H       
  61 H61            3.1475    -4.6349    -0.9626 H       
  62 H62           12.1964    -2.7685     1.2703 H       
  63 H63           13.0331    -2.2435    -0.2104 H       
  64 H64           11.7136    -1.2571     0.4636 H       
  65 H65           -0.4163     1.1134     2.3115 H       
  66 H66           -0.5751     3.6193     2.6712 H       
  67 H67           -0.3749     3.8922     0.8582 H       
  68 H68           -2.4751     2.5381     0.4225 H       
  69 H69           -2.6754     2.2653     2.2355 H       
  70 H70            2.5186    -0.0574     2.4672 H       
  71 H71            1.0581     0.7376     2.4925 H       
@<TRIPOS>BOND
   1    1    2 1
   2    1    4 1
   3    1    5 1
   4    1   38 1
   5    2    3 1
   6    2   42 1
   7    2   43 1
   8    3    4 1
   9    3    6 1
  10    3   41 1
  11    4   44 1
  12    4   45 1
  13    5   46 1
  14    6    7 ar
  15    6   11 ar
  16    7    8 ar
  17    7   47 1
  18    8    9 ar
  19    8   48 1
  20    9   10 ar
  21    9   20 1
  22   10   11 ar
  23   10   49 1
  24   11   50 1
  25   12   13 1
  26   12   17 1
  27   12   24 2
  28   13   14 2
  29   14   15 1
  30   14   51 1
  31   15   16 ar
  32   15   18 ar
  33   16   17 1
  34   16   21 ar
  35   17   22 1
  36   18   19 ar
  37   18   52 1
  38   19   20 ar
  39   19   31 1
  40   20   21 ar
  41   22   23 2
  42   23   24 1
  43   23   37 1
  44   24   27 1
  45   25   26 ar
  46   25   30 ar
  47   25   53 1
  48   26   27 ar
  49   26   54 1
  50   27   28 ar
  51   28   29 ar
  52   28   55 1
  53   29   30 ar
  54   29   56 1
  55   31   32 ar
  56   31   36 ar
  57   32   33 ar
  58   32   57 1
  59   33   34 ar
  60   33   58 1
  61   34   35 ar
  62   34   59 1
  63   35   36 ar
  64   35   60 1
  65   36   61 1
  66   37   62 1
  67   37   63 1
  68   37   64 1
  69   38   39 1
  70   38   40 1
  71   38   65 1
  72   39   40 1
  73   39   66 1
  74   39   67 1
  75   40   68 1
  76   40   69 1
  77   41   70 1
  78   41   71 1

#	End of record

