#	Name: ASD01881856
#	Creating user name:	WinNT
#	Creation time:	15. 06. 2019 19:43

#	Modifying user name:	WinNT
#	Modification time:	15. 06. 2019 19:43

#	Program:	/corina/corina34_cracker 3.40 0067  02.08.2006

@<TRIPOS>MOLECULE
ASD01881856
  36   39    0    0    0
SMALL
NO_CHARGES


@<TRIPOS>ATOM
   1 N1             0.0080     1.3499    -0.0010 N.am    
   2 C2             0.0159     0.0057    -0.0049 C.2     
   3 C3             1.4394    -0.5063    -0.0073 C.3     
   4 C4             2.2836     0.7184     0.4152 C.3     
   5 C5             1.3722     1.8910    -0.0101 C.3     
   6 O6            -0.9742    -0.6947    -0.0058 O.2     
   7 O7             1.5907    -1.5679     0.9373 O.3     
   8 N8             0.5180    -6.7265    -0.5598 N.pl3   
   9 N9             0.9438    -7.3259     0.6348 N.2     
  10 N10            1.3537    -6.4168     1.4474 N.2     
  11 C11            1.2383    -5.1978     0.8837 C.ar    
  12 C12            0.7041    -5.3717    -0.4048 C.ar    
  13 C13            1.5361    -3.9037     1.3322 C.ar    
  14 C14            1.3024    -2.8246     0.5051 C.ar    
  15 C15            0.7728    -3.0129    -0.7693 C.ar    
  16 C16            0.4763    -4.2685    -1.2195 C.ar    
  17 C17           -0.0141    -7.4089    -1.7420 C.3     
  18 C18           -1.5344    -7.5301    -1.6199 C.3     
  19 C19           -2.2948    -8.1118    -2.8133 C.3     
  20 C20           -2.1264    -8.9384    -1.5369 C.3     
  21 Br21           2.2551    -3.6384     3.0609 Br      
  22 H22           -0.7960     1.8925     0.0031 H       
  23 H23            1.7234    -0.8393    -1.0055 H       
  24 H24            2.4500     0.7246     1.4924 H       
  25 H25            3.2303     0.7445    -0.1244 H       
  26 H26            1.6368     2.2303    -1.0116 H       
  27 H27            1.4571     2.7121     0.7018 H       
  28 H28            0.5944    -2.1594    -1.4066 H       
  29 H29            0.0658    -4.4040    -2.2092 H       
  30 H30            0.2341    -6.8353    -2.6350 H       
  31 H31            0.4250    -8.4038    -1.8156 H       
  32 H32           -2.0241    -6.7433    -1.0461 H       
  33 H33           -3.2850    -7.7080    -3.0244 H       
  34 H34           -1.7121    -8.4082    -3.6854 H       
  35 H35           -1.4328    -9.7786    -1.5693 H       
  36 H36           -3.0058    -9.0785    -0.9082 H       
@<TRIPOS>BOND
   1    1    2 am
   2    1    5 1
   3    1   22 1
   4    2    3 1
   5    2    6 2
   6    3    4 1
   7    3    7 1
   8    3   23 1
   9    4    5 1
  10    4   24 1
  11    4   25 1
  12    5   26 1
  13    5   27 1
  14    7   14 1
  15    8    9 1
  16    8   12 1
  17    8   17 1
  18    9   10 2
  19   10   11 1
  20   11   12 ar
  21   11   13 ar
  22   12   16 ar
  23   13   14 ar
  24   13   21 1
  25   14   15 ar
  26   15   16 ar
  27   15   28 1
  28   16   29 1
  29   17   18 1
  30   17   30 1
  31   17   31 1
  32   18   19 1
  33   18   20 1
  34   18   32 1
  35   19   20 1
  36   19   33 1
  37   19   34 1
  38   20   35 1
  39   20   36 1

#	End of record

