#	Name: ASD01028006
#	Creating user name:	WinNT
#	Creation time:	15. 06. 2019 18:56

#	Modifying user name:	WinNT
#	Modification time:	15. 06. 2019 18:56

#	Program:	/corina/corina34_cracker 3.40 0067  02.08.2006

@<TRIPOS>MOLECULE
ASD01028006
  51   54    0    0    0
SMALL
NO_CHARGES


@<TRIPOS>ATOM
   1 C1             3.0444     5.7252     0.9927 C.ar    
   2 C2             3.6344     6.3991    -0.0532 C.ar    
   3 C3             3.0452     4.3375     1.0369 C.ar    
   4 C4             3.6510     3.6272    -0.0154 C.ar    
   5 C5             4.2422     4.3201    -1.0720 C.ar    
   6 C6             4.2343     5.6982    -1.0876 C.ar    
   7 C7             2.3108     6.2078     2.2294 C.3     
   8 C8             1.6004     4.9176     2.7031 C.3     
   9 O9             2.4332     3.8790     2.1599 O.3     
  10 C10            1.5704     4.8449     4.2311 C.3     
  11 C11            0.1854     4.8350     2.1270 C.3     
  12 C12            3.6616     2.1520    -0.0014 C.2     
  13 O13            2.6179     1.5375     0.1049 O.2     
  14 N14            4.8283     1.4854    -0.1063 N.am    
  15 C15            6.0872     2.2100    -0.3277 C.3     
  16 C16            7.0918     1.7943     0.7515 C.3     
  17 C17            7.2349     0.2706     0.7496 C.3     
  18 C18            5.8839    -0.3708     1.0745 C.3     
  19 C19            4.8664     0.0209     0.0046 C.3     
  20 O20            7.6710    -0.1651    -0.5396 O.3     
  21 C21            8.2480    -0.1398     1.7871 C.ar    
  22 C22            9.0044    -1.2817     1.6004 C.ar    
  23 C23            9.9337    -1.6586     2.5516 C.ar    
  24 C24           10.1068    -0.8927     3.6908 C.ar    
  25 C25            9.3494     0.2500     3.8770 C.ar    
  26 C26            8.4245     0.6289     2.9225 C.ar    
  27 Cl27          11.2734    -1.3657     4.8862 Cl      
  28 H28            3.6292     7.4789    -0.0678 H       
  29 H29            4.7076     3.7750    -1.8799 H       
  30 H30            4.6955     6.2318    -1.9055 H       
  31 H31            3.0119     6.5657     2.9834 H       
  32 H32            1.5857     6.9809     1.9754 H       
  33 H33            1.0330     5.7074     4.6253 H       
  34 H34            1.0663     3.9297     4.5415 H       
  35 H35            2.5906     4.8459     4.6150 H       
  36 H36            0.2362     4.8291     1.0382 H       
  37 H37           -0.2950     3.9200     2.4733 H       
  38 H38           -0.3929     5.6972     2.4590 H       
  39 H39            6.4840     1.9609    -1.3118 H       
  40 H40            5.9069     3.2832    -0.2651 H       
  41 H41            8.0594     2.2508     0.5430 H       
  42 H42            6.7355     2.1250     1.7270 H       
  43 H43            5.9918    -1.4552     1.0961 H       
  44 H44            5.5390    -0.0197     2.0471 H       
  45 H45            3.8807    -0.3513     0.2841 H       
  46 H46            5.1618    -0.4053    -0.9541 H       
  47 H47            7.7834    -1.1227    -0.6140 H       
  48 H48            8.8690    -1.8797     0.7113 H       
  49 H49           10.5244    -2.5509     2.4058 H       
  50 H50            9.4841     0.8483     4.7660 H       
  51 H51            7.8332     1.5210     3.0677 H       
@<TRIPOS>BOND
   1    1    2 ar
   2    1    3 ar
   3    1    7 1
   4    2    6 ar
   5    2   28 1
   6    3    4 ar
   7    3    9 1
   8    4    5 ar
   9    4   12 1
  10    5    6 ar
  11    5   29 1
  12    6   30 1
  13    7    8 1
  14    7   31 1
  15    7   32 1
  16    8    9 1
  17    8   10 1
  18    8   11 1
  19   10   33 1
  20   10   34 1
  21   10   35 1
  22   11   36 1
  23   11   37 1
  24   11   38 1
  25   12   13 2
  26   12   14 am
  27   14   15 1
  28   14   19 1
  29   15   16 1
  30   15   39 1
  31   15   40 1
  32   16   17 1
  33   16   41 1
  34   16   42 1
  35   17   18 1
  36   17   20 1
  37   17   21 1
  38   18   19 1
  39   18   43 1
  40   18   44 1
  41   19   45 1
  42   19   46 1
  43   20   47 1
  44   21   22 ar
  45   21   26 ar
  46   22   23 ar
  47   22   48 1
  48   23   24 ar
  49   23   49 1
  50   24   25 ar
  51   24   27 1
  52   25   26 ar
  53   25   50 1
  54   26   51 1

#	End of record

