#	Name: ASD02900029
#	Creating user name:	WinNT
#	Creation time:	15. 06. 2019 20:26

#	Modifying user name:	WinNT
#	Modification time:	15. 06. 2019 20:26

#	Program:	/corina/corina34_cracker 3.40 0067  02.08.2006

@<TRIPOS>MOLECULE
ASD02900029
  17   16    0    0    0
SMALL
NO_CHARGES


@<TRIPOS>ATOM
   1 O1             0.0021    -0.0041     0.0020 O.2     
   2 C2            -0.0143     1.2034     0.0087 C.2     
   3 C3             1.2804     1.9746     0.0004 C.3     
   4 O4             2.3790     1.0609    -0.0150 O.3     
   5 C5             1.3614     2.8485     1.2537 C.3     
   6 O6             2.5320     3.6657     1.1896 O.3     
   7 O7             3.0059     4.0087     3.6450 O.2     
   8 O8             4.3698     5.3594     2.0059 O.3     
   9 O9             1.8263     5.8769     2.4246 O.3     
  10 P10            2.9350     4.7122     2.3449 P.3     
  11 H11           -0.9568     1.7306     0.0160 H       
  12 H12            1.3211     2.6067    -0.8866 H       
  13 H13            2.4062     0.4657     0.7467 H       
  14 H14            0.4776     3.4837     1.3114 H       
  15 H15            1.4102     2.2125     2.1376 H       
  16 H16            4.6765     6.0009     2.6612 H       
  17 H17            1.7257     6.3809     1.6055 H       
@<TRIPOS>BOND
   1    1    2 2
   2    2    3 1
   3    2   11 1
   4    3    4 1
   5    3    5 1
   6    3   12 1
   7    4   13 1
   8    5    6 1
   9    5   14 1
  10    5   15 1
  11    6   10 1
  12    7   10 2
  13    8   10 1
  14    8   16 1
  15    9   10 1
  16    9   17 1

#	End of record

