#	Name: ASD06170200
#	Creating user name:	WinNT
#	Creation time:	15. 06. 2019 21:05

#	Modifying user name:	WinNT
#	Modification time:	15. 06. 2019 21:05

#	Program:	/corina/corina34_cracker 3.40 0067  02.08.2006

@<TRIPOS>MOLECULE
ASD06170200
  68   73    0    0    0
SMALL
NO_CHARGES


@<TRIPOS>ATOM
   1 C1             0.4717     0.6066     0.4104 C.2     
   2 C2            -0.1287    -0.4913    -0.2579 C.2     
   3 C3             0.4162    -0.9317    -1.4600 C.2     
   4 C4             1.5459    -0.2736    -1.9745 C.2     
   5 C5             2.0915     0.7889    -1.2857 C.2     
   6 N6             1.5534     1.2099    -0.1160 N.am    
   7 C7            -1.3107    -1.1553     0.3124 C.2     
   8 O8            -1.8959    -2.0095    -0.3262 O.2     
   9 N9            -1.7456    -0.8173     1.5425 N.am    
  10 C10            3.4364    -1.2551    -3.2816 C.ar    
  11 C11            2.1500    -0.7207    -3.2545 C.ar    
  12 C12            1.4377    -0.6129    -4.4515 C.ar    
  13 C13            2.0452    -1.0444    -5.6184 C.ar    
  14 C14            3.3256    -1.5634    -5.5624 C.ar    
  15 N15            3.9735    -1.6527    -4.4168 N.ar    
  16 C16            2.1325     2.2923     0.5572 C.ar    
  17 C17            3.1516     2.0760     1.4756 C.ar    
  18 C18            3.7208     3.1458     2.1380 C.ar    
  19 C19            3.2768     4.4314     1.8879 C.ar    
  20 C20            2.2620     4.6501     0.9743 C.ar    
  21 C21            1.6932     3.5851     0.3037 C.ar    
  22 O22            0.0036     1.0077     1.4617 O.2     
  23 C23           -2.9263    -1.3680     2.0405 C.ar    
  24 C24           -3.4387    -2.5274     1.4691 C.ar    
  25 C25           -4.6101    -3.0651     1.9706 C.ar    
  26 C26           -5.2340    -2.4193     3.0354 C.ar    
  27 C27           -4.6652    -1.2673     3.5544 C.ar    
  28 N28           -3.5435    -0.7844     3.0551 N.ar    
  29 O29           -6.3875    -2.9132     3.5591 O.3     
  30 N30           -6.1445    -4.9734     7.1239 N.ar    
  31 C31           -5.0716    -4.4248     6.6041 C.ar    
  32 C32           -5.1146    -3.7238     5.4057 C.ar    
  33 C33           -6.3153    -3.5922     4.7305 C.ar    
  34 C34           -7.4639    -4.1869     5.2994 C.ar    
  35 C35           -8.7161    -4.0965     4.6733 C.ar    
  36 C36           -9.8044    -4.6836     5.2514 C.ar    
  37 C37           -9.6832    -5.3756     6.4649 C.ar    
  38 C38           -8.4766    -5.4787     7.0951 C.ar    
  39 C39           -7.3382    -4.8855     6.5249 C.ar    
  40 O40          -10.7814    -5.9510     7.0211 O.3     
  41 C41          -10.5956    -6.6424     8.2578 C.3     
  42 O42          -11.0181    -4.5961     4.6447 O.3     
  43 C43          -11.0764    -3.8774     3.4110 C.3     
  44 H44           -0.0217    -1.7656    -1.9886 H       
  45 H45            2.9599     1.2924    -1.6841 H       
  46 H46           -1.2375    -0.1910     2.0814 H       
  47 H47            4.0000    -1.3401    -2.3643 H       
  48 H48            0.4383    -0.2036    -4.4662 H       
  49 H49            1.5246    -0.9767    -6.5622 H       
  50 H50            3.8025    -1.9013    -6.4705 H       
  51 H51            3.4983     1.0722     1.6719 H       
  52 H52            4.5133     2.9783     2.8524 H       
  53 H53            3.7233     5.2663     2.4074 H       
  54 H54            1.9170     5.6552     0.7816 H       
  55 H55            0.9042     3.7571    -0.4135 H       
  56 H56           -2.9287    -3.0019     0.6437 H       
  57 H57           -5.0315    -3.9645     1.5464 H       
  58 H58           -5.1433    -0.7612     4.3800 H       
  59 H59           -4.1290    -4.5211     7.1225 H       
  60 H60           -4.2148    -3.2826     5.0029 H       
  61 H61           -8.8185    -3.5648     3.7389 H       
  62 H62           -8.3977    -6.0144     8.0296 H       
  63 H63           -9.8800    -7.4525     8.1172 H       
  64 H64          -10.2164    -5.9488     9.0084 H       
  65 H65          -11.5485    -7.0532     8.5912 H       
  66 H66          -12.0994    -3.8838     3.0347 H       
  67 H67          -10.7558    -2.8485     3.5744 H       
  68 H68          -10.4185    -4.3516     2.6827 H       
@<TRIPOS>BOND
   1    1    2 1
   2    1    6 am
   3    1   22 2
   4    2    3 2
   5    2    7 1
   6    3    4 1
   7    3   44 1
   8    4    5 2
   9    4   11 1
  10    5    6 1
  11    5   45 1
  12    6   16 1
  13    7    8 2
  14    7    9 am
  15    9   23 1
  16    9   46 1
  17   10   11 ar
  18   10   15 ar
  19   10   47 1
  20   11   12 ar
  21   12   13 ar
  22   12   48 1
  23   13   14 ar
  24   13   49 1
  25   14   15 ar
  26   14   50 1
  27   16   17 ar
  28   16   21 ar
  29   17   18 ar
  30   17   51 1
  31   18   19 ar
  32   18   52 1
  33   19   20 ar
  34   19   53 1
  35   20   21 ar
  36   20   54 1
  37   21   55 1
  38   23   24 ar
  39   23   28 ar
  40   24   25 ar
  41   24   56 1
  42   25   26 ar
  43   25   57 1
  44   26   27 ar
  45   26   29 1
  46   27   28 ar
  47   27   58 1
  48   29   33 1
  49   30   31 ar
  50   30   39 ar
  51   31   32 ar
  52   31   59 1
  53   32   33 ar
  54   32   60 1
  55   33   34 ar
  56   34   35 ar
  57   34   39 ar
  58   35   36 ar
  59   35   61 1
  60   36   37 ar
  61   36   42 1
  62   37   38 ar
  63   37   40 1
  64   38   39 ar
  65   38   62 1
  66   40   41 1
  67   41   63 1
  68   41   64 1
  69   41   65 1
  70   42   43 1
  71   43   66 1
  72   43   67 1
  73   43   68 1

#	End of record

