#	Name: ASD08150477
#	Creating user name:	WinNT
#	Creation time:	15. 06. 2019 21:16

#	Modifying user name:	WinNT
#	Modification time:	15. 06. 2019 21:16

#	Program:	/corina/corina34_cracker 3.40 0067  02.08.2006

@<TRIPOS>MOLECULE
ASD08150477
  46   50    0    0    0
SMALL
NO_CHARGES


@<TRIPOS>ATOM
   1 N1             0.8876     2.9234    -1.4962 N.am    
   2 C2             1.3163     2.3019    -2.6118 C.2     
   3 C3             2.5260     1.5780    -2.6176 C.2     
   4 C4             3.2795     1.4980    -1.4915 C.2     
   5 C5             2.8318     2.1511    -0.3160 C.ar    
   6 C6             3.5754     2.1001     0.8786 C.ar    
   7 N7             3.1600     2.7035     1.9615 N.ar    
   8 C8             2.0140     3.4001     2.0001 C.ar    
   9 C9             1.2018     3.5053     0.8441 C.ar    
  10 C10            1.6227     2.8630    -0.3439 C.ar    
  11 C11            0.0088     4.2329     0.8951 C.ar    
  12 C12           -0.3669     4.8449     2.0798 C.ar    
  13 C13            0.4422     4.7368     3.2195 C.ar    
  14 C14            1.6052     4.0327     3.1856 C.ar    
  15 O15            0.6489     2.3659    -3.6301 O.2     
  16 C16           -1.6309     5.6186     2.1425 C.ar    
  17 C17           -0.3150     3.6407    -1.5176 C.ar    
  18 C18           -0.3093     4.9994    -1.8047 C.ar    
  19 C19           -1.4963     5.7048    -1.8252 C.ar    
  20 C20           -2.6918     5.0582    -1.5598 C.ar    
  21 C21           -2.6998     3.7033    -1.2732 C.ar    
  22 C22           -1.5156     2.9930    -1.2573 C.ar    
  23 F23           -3.8520     5.7503    -1.5799 F       
  24 C24           -2.7549     5.1929     1.4402 C.ar    
  25 N25           -3.8801     5.8774     1.4937 N.ar    
  26 C26           -3.9883     6.9852     2.2086 C.ar    
  27 C27           -2.9093     7.4732     2.9367 C.ar    
  28 C28           -1.7123     6.7839     2.9131 C.ar    
  29 O29           -5.1681     7.6544     2.2311 O.3     
  30 C30           -6.2404     7.1048     1.4629 C.3     
  31 H31            2.8540     1.0853    -3.5209 H       
  32 H32            4.2068     0.9443    -1.4911 H       
  33 H33            4.5058     1.5521     0.9008 H       
  34 H34           -0.6149     4.3174     0.0174 H       
  35 H35            0.1379     5.2190     4.1366 H       
  36 H36            2.2160     3.9591     4.0733 H       
  37 H37            0.6229     5.5041    -2.0114 H       
  38 H38           -1.4922     6.7616    -2.0481 H       
  39 H39           -3.6332     3.2010    -1.0661 H       
  40 H40           -1.5222     1.9363    -1.0341 H       
  41 H41           -2.7044     4.2929     0.8453 H       
  42 H42           -3.0069     8.3785     3.5175 H       
  43 H43           -0.8579     7.1399     3.4696 H       
  44 H44           -5.9494     7.0594     0.4134 H       
  45 H45           -6.4665     6.1005     1.8211 H       
  46 H46           -7.1232     7.7355     1.5681 H       
@<TRIPOS>BOND
   1    1    2 am
   2    1   10 1
   3    1   17 1
   4    2    3 1
   5    2   15 2
   6    3    4 2
   7    3   31 1
   8    4    5 1
   9    4   32 1
  10    5    6 ar
  11    5   10 ar
  12    6    7 ar
  13    6   33 1
  14    7    8 ar
  15    8    9 ar
  16    8   14 ar
  17    9   10 ar
  18    9   11 ar
  19   11   12 ar
  20   11   34 1
  21   12   13 ar
  22   12   16 1
  23   13   14 ar
  24   13   35 1
  25   14   36 1
  26   16   24 ar
  27   16   28 ar
  28   17   18 ar
  29   17   22 ar
  30   18   19 ar
  31   18   37 1
  32   19   20 ar
  33   19   38 1
  34   20   21 ar
  35   20   23 1
  36   21   22 ar
  37   21   39 1
  38   22   40 1
  39   24   25 ar
  40   24   41 1
  41   25   26 ar
  42   26   27 ar
  43   26   29 1
  44   27   28 ar
  45   27   42 1
  46   28   43 1
  47   29   30 1
  48   30   44 1
  49   30   45 1
  50   30   46 1

#	End of record

