#	Name: ASD03091505
#	Creating user name:	WinNT
#	Creation time:	15. 06. 2019 20:30

#	Modifying user name:	WinNT
#	Modification time:	15. 06. 2019 20:30

#	Program:	/corina/corina34_cracker 3.40 0067  02.08.2006

@<TRIPOS>MOLECULE
ASD03091505
  45   47    0    0    0
SMALL
NO_CHARGES


@<TRIPOS>ATOM
   1 N1            -0.0163     1.3523     0.0095 N.pl3   
   2 C2             0.0021    -0.0041     0.0020 C.2     
   3 C3             1.1379    -0.7091     0.2664 C.2     
   4 C4             2.3786     0.0269     0.5584 C.2     
   5 C5             2.3734     1.4687     0.2771 C.ar    
   6 C6             3.5464     2.2358     0.2734 C.ar    
   7 N7             3.4823     3.5322     0.0075 N.ar    
   8 C8             2.3380     4.1398    -0.2578 C.ar    
   9 C9             1.1413     3.4584    -0.2714 C.ar    
  10 C10            1.1399     2.0905     0.0024 C.ar    
  11 N11            4.7655     1.6421     0.5465 N.pl3   
  12 C12            5.9896     2.4470     0.5418 C.3     
  13 C13            7.1879     1.5547     0.8718 C.3     
  14 O14            3.3628    -0.5329     1.0121 O.2     
  15 C15           -1.3058     2.0476     0.0193 C.3     
  16 C16            1.1240    -2.1921     0.2605 C.ar    
  17 C17            0.8701    -2.8835    -0.9230 C.ar    
  18 C18            0.8578    -4.2628    -0.9251 C.ar    
  19 C19            1.0980    -4.9623     0.2495 C.ar    
  20 C20            1.3512    -4.2768     1.4296 C.ar    
  21 C21            1.3706    -2.8976     1.4373 C.ar    
  22 O22            1.0848    -6.3214     0.2442 O.3     
  23 C23            1.3398    -6.9775     1.4878 C.3     
  24 C24            1.2839    -8.4930     1.2857 C.3     
  25 H25           -0.9090    -0.5402    -0.2193 H       
  26 H26            2.3420     5.1989    -0.4690 H       
  27 H27            0.2183     3.9750    -0.4898 H       
  28 H28            4.8099     0.6929     0.7412 H       
  29 H29            6.1282     2.8917    -0.4437 H       
  30 H30            5.9081     3.2367     1.2886 H       
  31 H31            8.0987     2.1536     0.8682 H       
  32 H32            7.0493     1.1100     1.8572 H       
  33 H33            7.2694     0.7650     0.1249 H       
  34 H34           -2.1133     1.3156     0.0191 H       
  35 H35           -1.3775     2.6675     0.9130 H       
  36 H36           -1.3859     2.6772    -0.8669 H       
  37 H37            0.6827    -2.3399    -1.8372 H       
  38 H38            0.6607    -4.7991    -1.8416 H       
  39 H39            1.5374    -4.8239     2.3420 H       
  40 H40            1.5721    -2.3648     2.3549 H       
  41 H41            2.3280    -6.6956     1.8514 H       
  42 H42            0.5860    -6.6801     2.2168 H       
  43 H43            1.4784    -8.9935     2.2343 H       
  44 H44            0.2957    -8.7749     0.9222 H       
  45 H45            2.0377    -8.7904     0.5567 H       
@<TRIPOS>BOND
   1    1    2 1
   2    1   10 1
   3    1   15 1
   4    2    3 2
   5    2   25 1
   6    3    4 1
   7    3   16 1
   8    4    5 1
   9    4   14 2
  10    5    6 ar
  11    5   10 ar
  12    6    7 ar
  13    6   11 1
  14    7    8 ar
  15    8    9 ar
  16    8   26 1
  17    9   10 ar
  18    9   27 1
  19   11   12 1
  20   11   28 1
  21   12   13 1
  22   12   29 1
  23   12   30 1
  24   13   31 1
  25   13   32 1
  26   13   33 1
  27   15   34 1
  28   15   35 1
  29   15   36 1
  30   16   17 ar
  31   16   21 ar
  32   17   18 ar
  33   17   37 1
  34   18   19 ar
  35   18   38 1
  36   19   20 ar
  37   19   22 1
  38   20   21 ar
  39   20   39 1
  40   21   40 1
  41   22   23 1
  42   23   24 1
  43   23   41 1
  44   23   42 1
  45   24   43 1
  46   24   44 1
  47   24   45 1

#	End of record

