#	Name: ASD01884291
#	Creating user name:	WinNT
#	Creation time:	15. 06. 2019 19:47

#	Modifying user name:	WinNT
#	Modification time:	15. 06. 2019 19:47

#	Program:	/corina/corina34_cracker 3.40 0067  02.08.2006

@<TRIPOS>MOLECULE
ASD01884291
  29   30    0    0    0
SMALL
NO_CHARGES


@<TRIPOS>ATOM
   1 O1             0.8615     1.1579    -0.0327 O.3     
   2 C2             1.2170     1.0142    -1.3322 C.2     
   3 C3             1.5364    -0.2322    -1.8389 C.2     
   4 C4             1.2613     2.1315    -2.1895 C.2     
   5 C5             1.6175     1.9723    -3.4821 C.2     
   6 N6             1.9352     0.7451    -3.9724 N.am    
   7 C7             1.8999    -0.3471    -3.1866 C.2     
   8 O8             2.1895    -1.4399    -3.6487 O.2     
   9 C9             2.3169     0.6082    -5.3801 C.3     
  10 C10            3.8314     0.7770    -5.5167 C.3     
  11 C11            4.4455     0.5517    -6.8998 C.3     
  12 Cl12           1.4880    -1.6355    -0.8182 Cl      
  13 S13           -0.5245     1.7539     0.1677 S.o2    
  14 O14           -0.6923     2.6304    -0.9381 O.2     
  15 O15           -1.3695     0.6248     0.3423 O.2     
  16 F16            0.4861     3.7686     1.5312 F       
  17 F17           -1.6551     3.1824     2.0705 F       
  18 C18           -0.3933     2.6958     1.7124 C.3     
  19 F19            0.0903     1.8626     2.7269 F       
  20 C20            4.3389     1.9683    -6.3316 C.3     
  21 H21            1.0107     3.1126    -1.8138 H       
  22 H22            1.6500     2.8317    -4.1354 H       
  23 H23            2.0274    -0.3789    -5.7407 H       
  24 H24            1.8115     1.3731    -5.9697 H       
  25 H25            4.4184     0.4732    -4.6499 H       
  26 H26            5.4366     0.1001    -6.9429 H       
  27 H27            3.7706     0.2833    -7.7125 H       
  28 H28            3.5937     2.6318    -6.7705 H       
  29 H29            5.2598     2.4486    -6.0010 H       
@<TRIPOS>BOND
   1    1    2 1
   2    1   13 1
   3    2    3 2
   4    2    4 1
   5    3   12 1
   6    3    7 1
   7    4    5 2
   8    4   21 1
   9    5    6 1
  10    5   22 1
  11    6    7 am
  12    6    9 1
  13    7    8 2
  14    9   10 1
  15    9   23 1
  16    9   24 1
  17   10   11 1
  18   10   20 1
  19   10   25 1
  20   11   20 1
  21   11   26 1
  22   11   27 1
  23   13   18 1
  24   13   14 2
  25   13   15 2
  26   16   18 1
  27   17   18 1
  28   18   19 1
  29   20   28 1
  30   20   29 1

#	End of record

