#	Name: ASD01871024
#	Creating user name:	WinNT
#	Creation time:	15. 06. 2019 19:39

#	Modifying user name:	WinNT
#	Modification time:	15. 06. 2019 19:39

#	Program:	/corina/corina34_cracker 3.40 0067  02.08.2006

@<TRIPOS>MOLECULE
ASD01871024
  31   33    0    0    0
SMALL
NO_CHARGES


@<TRIPOS>ATOM
   1 C1            -0.0162     1.3405     0.0094 C.2     
   2 C2             0.0021    -0.0041     0.0020 C.2     
   3 S3            -1.6654    -0.5717     0.0149 S.3     
   4 C4            -2.2296     1.0416     0.0289 C.2     
   5 N5            -1.2338     1.8676     0.0295 N.2     
   6 O6            -3.5355     1.4044     0.0426 O.3     
   7 C7            -4.4699     0.4205     0.0460 C.ar    
   8 C8            -5.8183     0.7527     0.0600 C.ar    
   9 N9            -4.0878    -0.8459     0.0305 N.ar    
  10 C10           -4.9630    -1.8330     0.0327 C.ar    
  11 C11           -6.3198    -1.5760     0.0510 C.ar    
  12 C12           -6.7615    -0.2604     0.0628 C.ar    
  13 C13            1.2200     2.1645     0.0020 C.2     
  14 C14            1.2819     3.5712     0.0090 C.2     
  15 N15            2.5407     3.9229    -0.0011 N.2     
  16 N16            3.3261     2.7638    -0.0149 N.pl3   
  17 C17            2.5005     1.6958    -0.0068 C.2     
  18 C18           -4.4761    -3.2591     0.0145 C.3     
  19 C19            0.1019     4.5083     0.0253 C.3     
  20 H20            0.8844    -0.6268    -0.0103 H       
  21 H21           -6.1269     1.7877     0.0688 H       
  22 H22           -7.0295    -2.3901     0.0523 H       
  23 H23           -7.8171    -0.0323     0.0775 H       
  24 H24            4.2956     2.7335    -0.0246 H       
  25 H25            2.7999     0.6581    -0.0136 H       
  26 H26           -4.3462    -3.6117     1.0377 H       
  27 H27           -5.2071    -3.8862    -0.4958 H       
  28 H28           -3.5228    -3.3108    -0.5114 H       
  29 H29           -0.1728     4.7288     1.0568 H       
  30 H30            0.3659     5.4340    -0.4861 H       
  31 H31           -0.7410     4.0401    -0.4830 H       
@<TRIPOS>BOND
   1    1    2 2
   2    1   13 1
   3    1    5 1
   4    2    3 1
   5    2   20 1
   6    3    4 1
   7    4    5 2
   8    4    6 1
   9    6    7 1
  10    7    8 ar
  11    7    9 ar
  12    8   12 ar
  13    8   21 1
  14    9   10 ar
  15   10   11 ar
  16   10   18 1
  17   11   12 ar
  18   11   22 1
  19   12   23 1
  20   13   14 1
  21   13   17 2
  22   14   15 2
  23   14   19 1
  24   15   16 1
  25   16   17 1
  26   16   24 1
  27   17   25 1
  28   18   26 1
  29   18   27 1
  30   18   28 1
  31   19   29 1
  32   19   30 1
  33   19   31 1

#	End of record

