#	Name: ASD01150336
#	Creating user name:	WinNT
#	Creation time:	15. 06. 2019 19:04

#	Modifying user name:	WinNT
#	Modification time:	15. 06. 2019 19:04

#	Program:	/corina/corina34_cracker 3.40 0067  02.08.2006

@<TRIPOS>MOLECULE
ASD01150336
  66   69    0    0    0
SMALL
NO_CHARGES


@<TRIPOS>ATOM
   1 N1            -0.0860     1.0903     1.8193 N.pl3   
   2 C2            -0.0503    -0.2332     1.3740 C.2     
   3 C3            -1.3709    -0.5920     1.1333 C.2     
   4 N4            -2.1391     0.4623     1.4214 N.2     
   5 C5            -1.3928     1.4650     1.8348 C.2     
   6 C6             1.0925    -1.0400     1.2028 C.2     
   7 C7             1.0130     1.8781     2.1854 C.ar    
   8 C8             1.3395     3.0049     1.4426 C.ar    
   9 C9             2.4236     3.7795     1.8060 C.ar    
  10 C10            3.1839     3.4337     2.9081 C.ar    
  11 C11            2.8616     2.3119     3.6496 C.ar    
  12 C12            1.7747     1.5369     3.2951 C.ar    
  13 N13           -1.8613     2.7019     2.2137 N.3     
  14 C14           -3.3242     2.7690     2.0978 C.3     
  15 C15           -1.4253     3.0353     3.5763 C.3     
  16 O16            0.9756    -2.1848     0.8044 O.2     
  17 O17            2.3173    -0.5435     1.4807 O.3     
  18 C18            3.4312    -1.4169     1.2844 C.3     
  19 C19            3.4865    -1.8513    -0.1816 C.3     
  20 C20            4.7241    -0.6843     1.6484 C.3     
  21 C21            3.2755    -2.6503     2.1762 C.3     
  22 N22           -1.8134    -1.8267     0.6742 N.am    
  23 C23           -3.1300    -2.0420     0.4826 C.2     
  24 O24           -3.9305    -1.1559     0.7115 O.2     
  25 C25           -3.5996    -3.3523    -0.0046 C.ar    
  26 C26           -2.6891    -4.3812    -0.2720 C.ar    
  27 C27           -3.1807    -5.5918    -0.7274 C.ar    
  28 C28           -4.5436    -5.7497    -0.9037 C.ar    
  29 N29           -5.3843    -4.7666    -0.6460 N.ar    
  30 C30           -4.9683    -3.5922    -0.2030 C.ar    
  31 O31           -5.8670    -2.6109     0.0486 O.3     
  32 C32           -7.1880    -2.9143    -0.0523 C.ar    
  33 C33           -7.8139    -3.6354     0.9542 C.ar    
  34 C34           -9.1567    -3.9423     0.8500 C.ar    
  35 C35           -9.8775    -3.5310    -0.2572 C.ar    
  36 C36           -9.2551    -2.8117    -1.2621 C.ar    
  37 C37           -7.9137    -2.4982    -1.1592 C.ar    
  38 Cl38         -11.5648    -3.9185    -0.3861 Cl      
  39 H39            0.7465     3.2751     0.5813 H       
  40 H40            2.6781     4.6561     1.2287 H       
  41 H41            4.0315     4.0408     3.1901 H       
  42 H42            3.4575     2.0442     4.5096 H       
  43 H43            1.5234     0.6609     3.8746 H       
  44 H44           -3.7746     2.0127     2.7407 H       
  45 H45           -3.6680     3.7572     2.4034 H       
  46 H46           -3.6155     2.5867     1.0634 H       
  47 H47           -0.3361     3.0467     3.6167 H       
  48 H48           -1.8093     4.0179     3.8505 H       
  49 H49           -1.8069     2.2887     4.2727 H       
  50 H50            3.5974    -0.9725    -0.8170 H       
  51 H51            4.3362    -2.5174    -0.3314 H       
  52 H52            2.5654    -2.3732    -0.4409 H       
  53 H53            4.6846    -0.3748     2.6928 H       
  54 H54            5.5737    -1.3504     1.4987 H       
  55 H55            4.8350     0.1945     1.0131 H       
  56 H56            2.3544    -3.1723     1.9169 H       
  57 H57            4.1251    -3.3165     2.0265 H       
  58 H58            3.2361    -2.3409     3.2206 H       
  59 H59           -1.1747    -2.5336     0.4916 H       
  60 H60           -1.6291    -4.2337    -0.1269 H       
  61 H61           -2.5058    -6.4067    -0.9438 H       
  62 H62           -4.9262    -6.6950    -1.2592 H       
  63 H63           -7.2516    -3.9569     1.8184 H       
  64 H64           -9.6442    -4.5040     1.6331 H       
  65 H65           -9.8192    -2.4919    -2.1257 H       
  66 H66           -7.4282    -1.9368    -1.9437 H       
@<TRIPOS>BOND
   1    1    2 1
   2    1    7 1
   3    1    5 1
   4    2    3 2
   5    2    6 1
   6    3    4 1
   7    3   22 1
   8    4    5 2
   9    5   13 1
  10    6   16 2
  11    6   17 1
  12    7    8 ar
  13    7   12 ar
  14    8    9 ar
  15    8   39 1
  16    9   10 ar
  17    9   40 1
  18   10   11 ar
  19   10   41 1
  20   11   12 ar
  21   11   42 1
  22   12   43 1
  23   13   14 1
  24   13   15 1
  25   14   44 1
  26   14   45 1
  27   14   46 1
  28   15   47 1
  29   15   48 1
  30   15   49 1
  31   17   18 1
  32   18   19 1
  33   18   20 1
  34   18   21 1
  35   19   50 1
  36   19   51 1
  37   19   52 1
  38   20   53 1
  39   20   54 1
  40   20   55 1
  41   21   56 1
  42   21   57 1
  43   21   58 1
  44   22   23 am
  45   22   59 1
  46   23   24 2
  47   23   25 1
  48   25   26 ar
  49   25   30 ar
  50   26   27 ar
  51   26   60 1
  52   27   28 ar
  53   27   61 1
  54   28   29 ar
  55   28   62 1
  56   29   30 ar
  57   30   31 1
  58   31   32 1
  59   32   33 ar
  60   32   37 ar
  61   33   34 ar
  62   33   63 1
  63   34   35 ar
  64   34   64 1
  65   35   36 ar
  66   35   38 1
  67   36   37 ar
  68   36   65 1
  69   37   66 1

#	End of record

