#	Name: ASD07930422
#	Creating user name:	WinNT
#	Creation time:	15. 06. 2019 21:12

#	Modifying user name:	WinNT
#	Modification time:	15. 06. 2019 21:12

#	Program:	/corina/corina34_cracker 3.40 0067  02.08.2006

@<TRIPOS>MOLECULE
ASD07930422
  44   46    0    0    0
SMALL
NO_CHARGES


@<TRIPOS>ATOM
   1 N1            -0.0203     1.3053    -0.0071 N.2     
   2 N2            -1.1712    -0.7286     0.0031 N.pl3   
   3 C3            -1.3933    -1.7678    -1.0077 C.3     
   4 C4            -0.2700    -2.8100    -0.9174 C.3     
   5 S5             1.3233    -1.9505    -1.1100 S.o2    
   6 N6             1.1981    -0.6968    -0.0195 N.am    
   7 C7            -0.0006     0.0020    -0.0077 C.2     
   8 C8             2.2991    -0.3499     0.8825 C.3     
   9 C9            -1.3919    -1.1345    -2.4005 C.3     
  10 C10           -2.7209    -2.4361    -0.7591 C.ar    
  11 C11           -2.9224    -3.7651    -1.1052 C.ar    
  12 C12           -4.1511    -4.3478    -0.8640 C.ar    
  13 N13           -5.1300    -3.6580    -0.3109 N.ar    
  14 C14           -4.9769    -2.3888     0.0332 C.ar    
  15 C15           -3.7651    -1.7402    -0.1753 C.ar    
  16 O16            2.3899    -2.7489    -0.6160 O.2     
  17 O17            1.4032    -1.3145    -2.3782 O.2     
  18 N18           -6.0382    -1.6985     0.6147 N.am    
  19 C19           -7.2456    -2.2872     0.7245 C.2     
  20 O20           -7.4347    -3.3831     0.2325 O.2     
  21 C21           -8.3367    -1.6027     1.4407 C.2     
  22 C22           -9.6001    -2.0728     1.6295 C.2     
  23 O23          -10.2649    -1.1388     2.3281 O.3     
  24 C24           -9.4293    -0.1174     2.5636 C.2     
  25 N25           -8.2692    -0.3843     2.0428 N.2     
  26 C26           -9.7786     1.1394     3.3183 C.3     
  27 H27            0.8123     1.8030    -0.0151 H       
  28 H28           -1.8476    -0.5524     0.6755 H       
  29 H29           -0.3054    -3.3052     0.0529 H       
  30 H30           -0.3881    -3.5473    -1.7114 H       
  31 H31            2.9443     0.3857     0.4022 H       
  32 H32            1.8953     0.0680     1.8047 H       
  33 H33            2.8769    -1.2453     1.1118 H       
  34 H34           -0.4305    -0.6533    -2.5799 H       
  35 H35           -1.5570    -1.9073    -3.1512 H       
  36 H36           -2.1872    -0.3917    -2.4627 H       
  37 H37           -2.1267    -4.3374    -1.5588 H       
  38 H38           -4.3126    -5.3815    -1.1319 H       
  39 H39           -3.6428    -0.7049     0.1067 H       
  40 H40           -5.9080    -0.7942     0.9407 H       
  41 H41           -9.9930    -3.0173     1.2830 H       
  42 H42          -10.8174     1.0904     3.6447 H       
  43 H43           -9.1285     1.2333     4.1882 H       
  44 H44           -9.6424     2.0034     2.6680 H       
@<TRIPOS>BOND
   1    1    7 2
   2    1   27 1
   3    2    3 1
   4    2    7 1
   5    2   28 1
   6    3    4 1
   7    3    9 1
   8    3   10 1
   9    4    5 1
  10    4   29 1
  11    4   30 1
  12    5    6 am
  13    5   16 2
  14    5   17 2
  15    6    7 1
  16    6    8 1
  17    8   31 1
  18    8   32 1
  19    8   33 1
  20    9   34 1
  21    9   35 1
  22    9   36 1
  23   10   11 ar
  24   10   15 ar
  25   11   12 ar
  26   11   37 1
  27   12   13 ar
  28   12   38 1
  29   13   14 ar
  30   14   15 ar
  31   14   18 1
  32   15   39 1
  33   18   19 am
  34   18   40 1
  35   19   20 2
  36   19   21 1
  37   21   22 2
  38   21   25 1
  39   22   23 1
  40   22   41 1
  41   23   24 1
  42   24   25 2
  43   24   26 1
  44   26   42 1
  45   26   43 1
  46   26   44 1

#	End of record

