#	Name: ASD01148010
#	Creating user name:	WinNT
#	Creation time:	15. 06. 2019 19:01

#	Modifying user name:	WinNT
#	Modification time:	15. 06. 2019 19:01

#	Program:	/corina/corina34_cracker 3.40 0067  02.08.2006

@<TRIPOS>MOLECULE
ASD01148010
  68   71    0    0    0
SMALL
NO_CHARGES


@<TRIPOS>ATOM
   1 C1            -0.0103     1.5105     0.0049 C.3     
   2 C2             0.0329    -0.0238    -0.0143 C.3     
   3 C3             1.4393    -0.5875     0.0640 C.3     
   4 C4             2.3470    -0.0114    -1.0212 C.3     
   5 C5             2.2112     1.4706    -1.1346 C.3     
   6 C6             1.3757     2.1014     0.0002 C.3     
   7 C7             3.4744     2.3423    -1.0916 C.3     
   8 C8             2.8383     3.7657    -1.0516 C.3     
   9 C9             1.4433     3.5930    -0.3988 C.3     
  10 C10            1.4454    -2.1192    -0.0395 C.3     
  11 C11            2.4232    -2.5503    -1.1299 C.3     
  12 C12            3.8237    -2.0064    -0.8615 C.3     
  13 C13            3.7819    -0.4751    -0.7743 C.3     
  14 C14            0.0475    -2.6312    -0.3838 C.3     
  15 C15            0.0583    -4.1552    -0.5144 C.3     
  16 C16            1.0574    -4.5861    -1.5882 C.3     
  17 C17            2.4570    -4.0759    -1.2359 C.3     
  18 C18            1.8727    -2.6771     1.3214 C.3     
  19 C19            1.0822    -6.1142    -1.6754 C.3     
  20 C20            2.0354     1.9983     1.3732 C.3     
  21 C21            1.3266     4.4529     0.8333 C.2     
  22 N22            0.1903     5.0132     1.2080 N.2     
  23 C23            2.3606     4.7052     1.6364 C.2     
  24 S24            1.7967     5.7403     2.9456 S.3     
  25 C25            0.2187     5.7308     2.2878 C.2     
  26 N26           -0.8712     6.3945     2.8290 N.pl3   
  27 H27           -0.5665     1.8701    -0.8714 H       
  28 H28           -0.5509     1.8473     0.9001 H       
  29 H29           -0.5566    -0.4041     0.8307 H       
  30 H30           -0.4501    -0.3750    -0.9356 H       
  31 H31            1.8668    -0.3806     1.0499 H       
  32 H32            2.0275    -0.4422    -1.9909 H       
  33 H33            1.6983     1.6947    -2.0989 H       
  34 H34            4.0844     2.1531    -0.2208 H       
  35 H35            4.0540     2.2190    -2.0083 H       
  36 H36            3.4554     4.4296    -0.4502 H       
  37 H37            2.7340     4.1510    -2.0639 H       
  38 H38            0.6548     3.8161    -1.1094 H       
  39 H39            2.0723    -2.1626    -2.0958 H       
  40 H40            4.2276    -2.4176     0.0597 H       
  41 H41            4.4819    -2.2927    -1.6891 H       
  42 H42            4.4405    -0.0497    -1.5306 H       
  43 H43            4.1054    -0.1583     0.2163 H       
  44 H44           -0.6508    -2.3439     0.4034 H       
  45 H45           -0.2764    -2.1958    -1.3313 H       
  46 H46            0.3074    -4.6215     0.4346 H       
  47 H47           -0.9425    -4.4895    -0.8109 H       
  48 H48            0.7545    -4.1752    -2.5519 H       
  49 H49            3.1478    -4.3593    -2.0370 H       
  50 H50            2.7967    -4.5237    -0.3083 H       
  51 H51            1.1665    -2.3520     2.0854 H       
  52 H52            1.8866    -3.7662     1.2794 H       
  53 H53            2.8691    -2.3102     1.5678 H       
  54 H54            0.0886    -6.4794    -1.9350 H       
  55 H55            1.7943    -6.4229    -2.4408 H       
  56 H56            1.3815    -6.5282    -0.7125 H       
  57 H57            3.0405     2.4173     1.3258 H       
  58 H58            1.4448     2.5526     2.1027 H       
  59 H59            2.0919     0.9514     1.6715 H       
  60 H60            3.3681     4.3385     1.5070 H       
  61 H61           -0.7683     6.9132     3.6422 H       
  62 H62           -1.7368     6.3402     2.3946 H       
  63 C63           10.0090    13.7252     9.5253 C.3     
  64 O64           10.0284    12.2963     9.5174 O.3     
  65 H65           11.0316    14.1025     9.5175 H       
  66 H66            9.4819    14.0863     8.6422 H       
  67 H67            9.4989    14.0767    10.4221 H       
  68 H68           10.4681    11.9132     8.7461 H       
@<TRIPOS>BOND
   1    1    2 1
   2    1    6 1
   3    1   27 1
   4    1   28 1
   5    2    3 1
   6    2   29 1
   7    2   30 1
   8    3    4 1
   9    3   10 1
  10    3   31 1
  11    4    5 1
  12    4   13 1
  13    4   32 1
  14    5    6 1
  15    5    7 1
  16    5   33 1
  17    6   20 1
  18    6    9 1
  19    7    8 1
  20    7   34 1
  21    7   35 1
  22    8    9 1
  23    8   36 1
  24    8   37 1
  25    9   21 1
  26    9   38 1
  27   10   14 1
  28   10   18 1
  29   10   11 1
  30   11   12 1
  31   11   17 1
  32   11   39 1
  33   12   13 1
  34   12   40 1
  35   12   41 1
  36   13   42 1
  37   13   43 1
  38   14   15 1
  39   14   44 1
  40   14   45 1
  41   15   16 1
  42   15   46 1
  43   15   47 1
  44   16   17 1
  45   16   19 1
  46   16   48 1
  47   17   49 1
  48   17   50 1
  49   18   51 1
  50   18   52 1
  51   18   53 1
  52   19   54 1
  53   19   55 1
  54   19   56 1
  55   20   57 1
  56   20   58 1
  57   20   59 1
  58   21   22 1
  59   21   23 2
  60   22   25 2
  61   23   24 1
  62   23   60 1
  63   24   25 1
  64   25   26 1
  65   26   61 1
  66   26   62 1
  67   63   64 1
  68   63   65 1
  69   63   66 1
  70   63   67 1
  71   64   68 1

#	End of record

