#	Name: ASD08070052
#	Creating user name:	WinNT
#	Creation time:	15. 06. 2019 21:14

#	Modifying user name:	WinNT
#	Modification time:	15. 06. 2019 21:14

#	Program:	/corina/corina34_cracker 3.40 0067  02.08.2006

@<TRIPOS>MOLECULE
ASD08070052
  37   38    0    0    0
SMALL
NO_CHARGES


@<TRIPOS>ATOM
   1 C1            -0.0169     1.3917     0.0097 C.ar    
   2 C2             0.0021    -0.0041     0.0020 C.ar    
   3 C3            -1.1845    -0.7103     0.0092 C.ar    
   4 C4            -2.4028    -0.0256     0.0242 C.ar    
   5 C5            -2.4149     1.3709     0.0319 C.ar    
   6 C6            -1.2276     2.0705     0.0198 C.ar    
   7 O7             1.2696     1.8438    -0.0002 O.3     
   8 C8             2.0762     0.7203     0.3996 C.3     
   9 O9             1.3020    -0.4216    -0.0122 O.3     
  10 C10           -3.6735    -0.7766     0.0314 C.2     
  11 O11           -3.6612    -1.9924     0.0243 O.2     
  12 N12           -4.8474    -0.1147     0.0459 N.am    
  13 C13           -6.1086    -0.8600     0.0530 C.3     
  14 C14           -7.2072     0.0024     0.6776 C.3     
  15 C15           -6.4909    -1.2140    -1.3610 C.2     
  16 O16           -7.6184    -1.9025    -1.5991 O.3     
  17 O17           -5.7826    -0.8782    -2.2805 O.2     
  18 C18           -7.9236    -2.2084    -2.9853 C.3     
  19 C19           -6.8797     0.2579     2.1502 C.3     
  20 C20           -7.9783     1.1204     2.7748 C.3     
  21 H21           -1.1711    -1.7902     0.0029 H       
  22 H22           -3.3549     1.9027     0.0432 H       
  23 H23           -1.2392     3.1504     0.0258 H       
  24 H24            3.0373     0.7368    -0.1144 H       
  25 H25            2.2188     0.7166     1.4802 H       
  26 H26           -4.8573     0.8553     0.0516 H       
  27 H27           -5.9878    -1.7730     0.6361 H       
  28 H28           -7.2674     0.9535     0.1485 H       
  29 H29           -8.1630    -0.5162     0.6027 H       
  30 H30           -8.0224    -1.2806    -3.5489 H       
  31 H31           -7.1190    -2.8080    -3.4108 H       
  32 H32           -8.8587    -2.7662    -3.0369 H       
  33 H33           -6.8195    -0.6932     2.6793 H       
  34 H34           -5.9239     0.7765     2.2251 H       
  35 H35           -8.0385     2.0714     2.2457 H       
  36 H36           -8.9341     0.6017     2.6998 H       
  37 H37           -7.7450     1.3024     3.8238 H       
@<TRIPOS>BOND
   1    1    2 ar
   2    1    7 1
   3    1    6 ar
   4    2    3 ar
   5    2    9 1
   6    3    4 ar
   7    3   21 1
   8    4    5 ar
   9    4   10 1
  10    5    6 ar
  11    5   22 1
  12    6   23 1
  13    7    8 1
  14    8    9 1
  15    8   24 1
  16    8   25 1
  17   10   11 2
  18   10   12 am
  19   12   13 1
  20   12   26 1
  21   13   14 1
  22   13   15 1
  23   13   27 1
  24   14   19 1
  25   14   28 1
  26   14   29 1
  27   15   16 1
  28   15   17 2
  29   16   18 1
  30   18   30 1
  31   18   31 1
  32   18   32 1
  33   19   20 1
  34   19   33 1
  35   19   34 1
  36   20   35 1
  37   20   36 1
  38   20   37 1

#	End of record

