#	Name: ASD02039288
#	Creating user name:	WinNT
#	Creation time:	15. 06. 2019 20:18

#	Modifying user name:	WinNT
#	Modification time:	15. 06. 2019 20:18

#	Program:	/corina/corina34_cracker 3.40 0067  02.08.2006

@<TRIPOS>MOLECULE
ASD02039288
  51   54    0    0    0
SMALL
NO_CHARGES


@<TRIPOS>ATOM
   1 C1             0.1376     1.1866    -0.3124 C.ar    
   2 C2             0.5209    -0.0910     0.0548 C.ar    
   3 C3            -0.3818    -1.1371    -0.0113 C.ar    
   4 C4            -1.6742    -0.9113    -0.4449 C.ar    
   5 C5            -2.0671     0.3779    -0.8168 C.ar    
   6 C6            -1.1512     1.4280    -0.7419 C.ar    
   7 C7            -3.4472     0.6282    -1.2821 C.2     
   8 C8            -4.0903    -0.0901    -2.2336 C.2     
   9 C9             1.1289     2.3192    -0.2372 C.3     
  10 N10            1.9441     2.3363    -1.4543 N.am    
  11 C11            1.4491     3.0089    -2.6580 C.3     
  12 C12            3.1494     1.7333    -1.4666 C.2     
  13 C13            3.6024     0.9684    -0.2919 C.2     
  14 C14            4.7358     0.2137    -0.2091 C.2     
  15 C15            2.4309     4.1084    -3.0680 C.3     
  16 N16            2.9712     0.8910     0.9075 N.2     
  17 C17            3.6651     0.1260     1.6998 C.2     
  18 N18            4.7677    -0.3119     1.0380 N.pl3   
  19 O19            3.8630     1.8206    -2.4476 O.2     
  20 C20            5.8048    -1.1952     1.5770 C.3     
  21 F21           -2.5554    -1.9334    -0.5097 F       
  22 C22            1.3191     1.9918    -3.7936 C.3     
  23 O23           -4.2562     1.6015    -0.8192 O.3     
  24 C24           -5.4517     1.5699    -1.4423 C.ar    
  25 C25           -5.4202     0.5095    -2.3654 C.ar    
  26 C26           -6.6037     2.3382    -1.3324 C.ar    
  27 C27           -7.6952     2.0562    -2.1264 C.ar    
  28 C28           -7.6575     1.0105    -3.0375 C.ar    
  29 C29           -6.5352     0.2394    -3.1601 C.ar    
  30 H30            1.5300    -0.2726     0.3944 H       
  31 H31           -0.0757    -2.1322     0.2762 H       
  32 H32           -1.4483     2.4264    -1.0273 H       
  33 H33           -3.7012    -0.9341    -2.7837 H       
  34 H34            0.5942     3.2645    -0.1446 H       
  35 H35            1.7741     2.1803     0.6303 H       
  36 H36            0.4741     3.4506    -2.4525 H       
  37 H37            5.4675     0.0639    -0.9893 H       
  38 H38            3.4218     3.6767    -3.2087 H       
  39 H39            2.0974     4.5641    -4.0003 H       
  40 H40            2.4729     4.8677    -2.2871 H       
  41 H41            3.4074    -0.1186     2.7197 H       
  42 H42            5.5371    -2.2331     1.3788 H       
  43 H43            6.7586    -0.9686     1.1007 H       
  44 H44            5.8902    -1.0412     2.6527 H       
  45 H45            0.5856     1.2334    -3.5199 H       
  46 H46            0.9946     2.5003    -4.7014 H       
  47 H47            2.2846     1.5170    -3.9684 H       
  48 H48           -6.6445     3.1545    -0.6263 H       
  49 H49           -8.5893     2.6556    -2.0379 H       
  50 H50           -8.5211     0.8027    -3.6520 H       
  51 H51           -6.5107    -0.5735    -3.8708 H       
@<TRIPOS>BOND
   1    1    2 ar
   2    1    9 1
   3    1    6 ar
   4    2    3 ar
   5    2   30 1
   6    3    4 ar
   7    3   31 1
   8    4    5 ar
   9    4   21 1
  10    5    6 ar
  11    5    7 1
  12    6   32 1
  13    7   23 1
  14    7    8 2
  15    8   25 1
  16    8   33 1
  17    9   10 1
  18    9   34 1
  19    9   35 1
  20   10   11 1
  21   10   12 am
  22   11   22 1
  23   11   15 1
  24   11   36 1
  25   12   13 1
  26   12   19 2
  27   13   14 2
  28   13   16 1
  29   14   18 1
  30   14   37 1
  31   15   38 1
  32   15   39 1
  33   15   40 1
  34   16   17 2
  35   17   18 1
  36   17   41 1
  37   18   20 1
  38   20   42 1
  39   20   43 1
  40   20   44 1
  41   22   45 1
  42   22   46 1
  43   22   47 1
  44   23   24 1
  45   24   25 ar
  46   24   26 ar
  47   25   29 ar
  48   26   27 ar
  49   26   48 1
  50   27   28 ar
  51   27   49 1
  52   28   29 ar
  53   28   50 1
  54   29   51 1

#	End of record

