#	Name: ASD01152146
#	Creating user name:	WinNT
#	Creation time:	15. 06. 2019 19:05

#	Modifying user name:	WinNT
#	Modification time:	15. 06. 2019 19:05

#	Program:	/corina/corina34_cracker 3.40 0067  02.08.2006

@<TRIPOS>MOLECULE
ASD01152146
  60   62    0    0    0
SMALL
NO_CHARGES


@<TRIPOS>ATOM
   1 N1            -0.0186     1.3533     0.0027 N.pl3   
   2 C2            -0.0039     0.0022     0.1542 C.2     
   3 N3            -1.2383    -0.4541     0.1185 N.2     
   4 C4            -2.0953     0.5560    -0.0541 C.2     
   5 C5            -1.3572     1.7309    -0.1271 C.2     
   6 N6            -3.4783     0.4511    -0.1398 N.am    
   7 N7             1.1244    -0.7676     0.3191 N.3     
   8 C8             1.1358    -1.4086     1.6408 C.3     
   9 C9             1.2412    -1.7667    -0.7515 C.3     
  10 C10           -1.8566     3.0368    -0.3047 C.2     
  11 O11           -1.0057     4.0842    -0.3551 O.3     
  12 O12           -3.0556     3.2207    -0.4127 O.2     
  13 C13           -1.5811     5.3794    -0.5372 C.3     
  14 C14           -2.5357     5.6806     0.6200 C.3     
  15 C15           -0.4703     6.4311    -0.5689 C.3     
  16 C16           -2.3535     5.4134    -1.8575 C.3     
  17 C17            1.0943     2.2038    -0.0140 C.ar    
  18 C18            1.9964     2.1486    -1.0682 C.ar    
  19 C19            3.0927     2.9885    -1.0818 C.ar    
  20 C20            3.2926     3.8837    -0.0470 C.ar    
  21 C21            2.3960     3.9411     1.0043 C.ar    
  22 C22            1.2947     3.1078     1.0208 C.ar    
  23 C23           -4.0696    -0.7565    -0.0467 C.2     
  24 O24           -3.3930    -1.7539     0.1123 O.2     
  25 C25           -5.5391    -0.8679    -0.1377 C.ar    
  26 C26           -6.3194     0.2756    -0.3203 C.ar    
  27 C27           -7.6933     0.1640    -0.4045 C.ar    
  28 C28           -8.2984    -1.0794    -0.3078 C.ar    
  29 C29           -7.5327    -2.2160    -0.1270 C.ar    
  30 C30           -6.1557    -2.1201    -0.0472 C.ar    
  31 F31           -5.4085    -3.2317     0.1295 F       
  32 O32           -1.0458     7.7264    -0.7510 O.3     
  33 C33           -0.0887     8.7866    -0.7950 C.3     
  34 F34           -8.4495     1.2695    -0.5812 F       
  35 H35           -4.0182     1.2470    -0.2667 H       
  36 H36            0.2588    -2.0478     1.7423 H       
  37 H37            2.0384    -2.0109     1.7447 H       
  38 H38            1.1189    -0.6427     2.4162 H       
  39 H39            1.2130    -1.2667    -1.7197 H       
  40 H40            2.1843    -2.3029    -0.6468 H       
  41 H41            0.4127    -2.4717    -0.6825 H       
  42 H42           -1.9855     5.6565     1.5606 H       
  43 H43           -2.9746     6.6686     0.4811 H       
  44 H44           -3.3270     4.9314     0.6426 H       
  45 H45            0.0799     6.4069     0.3717 H       
  46 H46            0.2097     6.2165    -1.3933 H       
  47 H47           -3.1448     4.6641    -1.8349 H       
  48 H48           -2.7924     6.4014    -1.9964 H       
  49 H49           -1.6734     5.1988    -2.6818 H       
  50 H50            1.8410     1.4494    -1.8765 H       
  51 H51            3.7949     2.9458    -1.9013 H       
  52 H52            4.1508     4.5392    -0.0597 H       
  53 H53            2.5550     4.6411     1.8112 H       
  54 H54            0.5946     3.1533     1.8419 H       
  55 H55           -5.8495     1.2452    -0.3951 H       
  56 H56           -9.3734    -1.1605    -0.3737 H       
  57 H57           -8.0108    -3.1815    -0.0525 H       
  58 H58           -0.6048     9.7364    -0.9354 H       
  59 H59            0.4694     8.8113     0.1410 H       
  60 H60            0.5993     8.6209    -1.6240 H       
@<TRIPOS>BOND
   1    1    2 1
   2    1   17 1
   3    1    5 1
   4    2    3 2
   5    2    7 1
   6    3    4 1
   7    4    5 2
   8    4    6 1
   9    5   10 1
  10    6   23 am
  11    6   35 1
  12    7    8 1
  13    7    9 1
  14    8   36 1
  15    8   37 1
  16    8   38 1
  17    9   39 1
  18    9   40 1
  19    9   41 1
  20   10   11 1
  21   10   12 2
  22   11   13 1
  23   13   14 1
  24   13   15 1
  25   13   16 1
  26   14   42 1
  27   14   43 1
  28   14   44 1
  29   15   32 1
  30   15   45 1
  31   15   46 1
  32   16   47 1
  33   16   48 1
  34   16   49 1
  35   17   18 ar
  36   17   22 ar
  37   18   19 ar
  38   18   50 1
  39   19   20 ar
  40   19   51 1
  41   20   21 ar
  42   20   52 1
  43   21   22 ar
  44   21   53 1
  45   22   54 1
  46   23   24 2
  47   23   25 1
  48   25   26 ar
  49   25   30 ar
  50   26   27 ar
  51   26   55 1
  52   27   28 ar
  53   27   34 1
  54   28   29 ar
  55   28   56 1
  56   29   30 ar
  57   29   57 1
  58   30   31 1
  59   32   33 1
  60   33   58 1
  61   33   59 1
  62   33   60 1

#	End of record

