#	Name: ASD02562072
#	Creating user name:	WinNT
#	Creation time:	15. 06. 2019 20:25

#	Modifying user name:	WinNT
#	Modification time:	15. 06. 2019 20:25

#	Program:	/corina/corina34_cracker 3.40 0067  02.08.2006

@<TRIPOS>MOLECULE
ASD02562072
  43   46    0    0    0
SMALL
NO_CHARGES


@<TRIPOS>ATOM
   1 C1             0.0967     0.9545     1.1010 C.2     
   2 C2             0.2529    -0.4445     1.1165 C.2     
   3 C3             1.4427    -1.0005     0.8052 C.2     
   4 N4             2.5134    -0.2130     0.4703 N.pl3   
   5 C5             2.3889     1.1568     0.4467 C.2     
   6 C6             1.1494     1.7481     0.7705 C.2     
   7 C7             3.8011    -0.5110     0.1210 C.2     
   8 C8             4.4400     0.6893    -0.1102 C.2     
   9 N9             3.5532     1.6797     0.0969 N.2     
  10 N10            4.3615    -1.7849     0.0183 N.3     
  11 C11            5.8552     0.8584    -0.5154 C.ar    
  12 C12            3.3339    -2.8250     0.1600 C.3     
  13 C13            3.8118    -4.1100    -0.5193 C.3     
  14 C14            2.7416    -5.1933    -0.3717 C.3     
  15 C15            2.4913    -5.4641     1.1132 C.3     
  16 C16            2.0134    -4.1792     1.7925 C.3     
  17 C17            3.0836    -3.0958     1.6449 C.3     
  18 C18            6.8620     0.1603     0.1499 C.ar    
  19 C19            8.1785     0.3219    -0.2320 C.ar    
  20 C20            8.5005     1.1747    -1.2724 C.ar    
  21 C21            7.5065     1.8707    -1.9371 C.ar    
  22 C22            6.1852     1.7129    -1.5686 C.ar    
  23 Cl23           4.9388     2.5866    -2.4034 Cl      
  24 F24           -0.7929    -1.2342     1.4449 F       
  25 H25           -0.8579     1.3956     1.3467 H       
  26 H26            1.5521    -2.0748     0.8204 H       
  27 H27            1.0380     2.8223     0.7555 H       
  28 H28            4.8647    -1.8896    -0.8499 H       
  29 H29            2.4092    -2.4885    -0.3089 H       
  30 H30            3.9901    -3.9171    -1.5771 H       
  31 H31            4.7365    -4.4465    -0.0504 H       
  32 H32            1.8169    -4.8568    -0.8405 H       
  33 H33            3.0821    -6.1088    -0.8556 H       
  34 H34            1.7289    -6.2359     1.2183 H       
  35 H35            3.4160    -5.8006     1.5821 H       
  36 H36            1.0887    -3.8427     1.3236 H       
  37 H37            1.8351    -4.3721     2.8503 H       
  38 H38            4.0083    -3.4323     2.1137 H       
  39 H39            2.7431    -2.1804     2.1288 H       
  40 H40            6.6124    -0.5054     0.9629 H       
  41 H41            8.9590    -0.2185     0.2829 H       
  42 H42            9.5322     1.2981    -1.5668 H       
  43 H43            7.7641     2.5351    -2.7486 H       
@<TRIPOS>BOND
   1    1    2 1
   2    1    6 2
   3    1   25 1
   4    2    3 2
   5    2   24 1
   6    3    4 1
   7    3   26 1
   8    4    5 1
   9    4    7 1
  10    5    6 1
  11    5    9 2
  12    6   27 1
  13    7    8 2
  14    7   10 1
  15    8    9 1
  16    8   11 1
  17   10   12 1
  18   10   28 1
  19   11   18 ar
  20   11   22 ar
  21   12   13 1
  22   12   17 1
  23   12   29 1
  24   13   14 1
  25   13   30 1
  26   13   31 1
  27   14   15 1
  28   14   32 1
  29   14   33 1
  30   15   16 1
  31   15   34 1
  32   15   35 1
  33   16   17 1
  34   16   36 1
  35   16   37 1
  36   17   38 1
  37   17   39 1
  38   18   19 ar
  39   18   40 1
  40   19   20 ar
  41   19   41 1
  42   20   21 ar
  43   20   42 1
  44   21   22 ar
  45   21   43 1
  46   22   23 1

#	End of record

