#	Name: ASD07330002
#	Creating user name:	WinNT
#	Creation time:	15. 06. 2019 21:11

#	Modifying user name:	WinNT
#	Modification time:	15. 06. 2019 21:11

#	Program:	/corina/corina34_cracker 3.40 0067  02.08.2006

@<TRIPOS>MOLECULE
ASD07330002
  71   75    0    0    0
SMALL
NO_CHARGES


@<TRIPOS>ATOM
   1 C1             3.9137    -6.2518     7.2468 C.3     
   2 C2             2.8160    -6.1187     6.1893 C.3     
   3 O3             2.7196    -7.3360     5.4470 O.3     
   4 C4             1.7852    -7.3852     4.4609 C.ar    
   5 C5             1.6384    -8.5370     3.7015 C.ar    
   6 C6             0.6898    -8.5874     2.6996 C.ar    
   7 C7            -0.1176    -7.4852     2.4522 C.ar    
   8 C8             0.0294    -6.3328     3.2129 C.ar    
   9 C9             0.9748    -6.2855     4.2180 C.ar    
  10 N10           -1.0806    -7.5356     1.4347 N.am    
  11 C11           -0.8953    -6.8202     0.2946 C.2     
  12 N12           -1.7399    -6.8144    -0.6924 N.2     
  13 C13           -2.8869    -7.5359    -0.6532 C.ar    
  14 C14           -3.1623    -8.3114     0.4956 C.ar    
  15 C15           -2.1860    -8.3011     1.5928 C.2     
  16 O16           -2.3673    -8.9490     2.6072 O.2     
  17 C17           -4.3376    -9.0611     0.5554 C.ar    
  18 C18           -5.1934    -9.0100    -0.5303 C.ar    
  19 C19           -4.8616    -8.2275    -1.6270 C.ar    
  20 N20           -3.7485    -7.5264    -1.6658 N.ar    
  21 C21            0.3556    -5.9893     0.1685 C.3     
  22 N22            1.5002    -6.8662    -0.0906 N.am    
  23 C23            2.5473    -6.8761     0.7580 C.2     
  24 O24            2.4997    -6.2365     1.7873 O.2     
  25 C25            3.7772    -7.6818     0.4277 C.3     
  26 C26            4.8017    -7.5047     1.5187 C.ar    
  27 C27            4.8123    -8.3630     2.6021 C.ar    
  28 C28            5.7518    -8.2017     3.6030 C.ar    
  29 C29            6.6823    -7.1801     3.5201 C.ar    
  30 C30            6.6707    -6.3208     2.4342 C.ar    
  31 C31            5.7339    -6.4872     1.4322 C.ar    
  32 C32            7.6827    -5.2079     2.3428 C.3     
  33 F33            7.4714    -4.4810     1.1663 F       
  34 F34            7.5438    -4.3594     3.4464 F       
  35 F35            8.9723    -5.7501     2.3307 F       
  36 F36            7.6007    -7.0212     4.4981 F       
  37 C37            1.5067    -7.7323    -1.2721 C.3     
  38 C38            0.8228    -9.0345    -0.9442 C.ar    
  39 C39           -0.5082    -9.2318    -1.2779 C.ar    
  40 C40           -1.0961   -10.4460    -0.9571 C.ar    
  41 C41           -0.3411   -11.4122    -0.3199 C.ar    
  42 N42            0.9230   -11.1895    -0.0171 N.ar    
  43 C43            1.5162   -10.0494    -0.3119 C.ar    
  44 C44            0.1974    -5.0016    -0.9892 C.3     
  45 H45            3.9872    -5.3232     7.8130 H       
  46 H46            3.6694    -7.0712     7.9229 H       
  47 H47            4.8663    -6.4557     6.7580 H       
  48 H48            1.8634    -5.9147     6.6781 H       
  49 H49            3.0603    -5.2993     5.5132 H       
  50 H50            2.2665    -9.3942     3.8939 H       
  51 H51            0.5761    -9.4838     2.1080 H       
  52 H52           -0.5983    -5.4752     3.0210 H       
  53 H53            1.0893    -5.3893     4.8097 H       
  54 H54           -4.5715    -9.6624     1.4215 H       
  55 H55           -6.1134    -9.5756    -0.5245 H       
  56 H56           -5.5346    -8.1926    -2.4709 H       
  57 H57            0.5215    -5.4395     1.0950 H       
  58 H58            3.5105    -8.7356     0.3475 H       
  59 H59            4.1926    -7.3390    -0.5199 H       
  60 H60            4.0861    -9.1597     2.6667 H       
  61 H61            5.7597    -8.8722     4.4496 H       
  62 H62            5.7247    -5.8171     0.5852 H       
  63 H63            0.9772    -7.2390    -2.0872 H       
  64 H64            2.5358    -7.9282    -1.5734 H       
  65 H65           -1.0739    -8.4580    -1.7757 H       
  66 H66           -2.1311   -10.6341    -1.2018 H       
  67 H67           -0.7916   -12.3605    -0.0666 H       
  68 H68            2.5532    -9.9034    -0.0480 H       
  69 H69           -0.5984    -4.2939    -0.7569 H       
  70 H70            1.1326    -4.4614    -1.1363 H       
  71 H71           -0.0548    -5.5460    -1.8993 H       
@<TRIPOS>BOND
   1    1    2 1
   2    1   45 1
   3    1   46 1
   4    1   47 1
   5    2    3 1
   6    2   48 1
   7    2   49 1
   8    3    4 1
   9    4    5 ar
  10    4    9 ar
  11    5    6 ar
  12    5   50 1
  13    6    7 ar
  14    6   51 1
  15    7    8 ar
  16    7   10 1
  17    8    9 ar
  18    8   52 1
  19    9   53 1
  20   10   11 1
  21   10   15 am
  22   11   12 2
  23   11   21 1
  24   12   13 1
  25   13   14 ar
  26   13   20 ar
  27   14   15 1
  28   14   17 ar
  29   15   16 2
  30   17   18 ar
  31   17   54 1
  32   18   19 ar
  33   18   55 1
  34   19   20 ar
  35   19   56 1
  36   21   22 1
  37   21   44 1
  38   21   57 1
  39   22   23 am
  40   22   37 1
  41   23   24 2
  42   23   25 1
  43   25   26 1
  44   25   58 1
  45   25   59 1
  46   26   27 ar
  47   26   31 ar
  48   27   28 ar
  49   27   60 1
  50   28   29 ar
  51   28   61 1
  52   29   30 ar
  53   29   36 1
  54   30   31 ar
  55   30   32 1
  56   31   62 1
  57   32   33 1
  58   32   34 1
  59   32   35 1
  60   37   38 1
  61   37   63 1
  62   37   64 1
  63   38   39 ar
  64   38   43 ar
  65   39   40 ar
  66   39   65 1
  67   40   41 ar
  68   40   66 1
  69   41   42 ar
  70   41   67 1
  71   42   43 ar
  72   43   68 1
  73   44   69 1
  74   44   70 1
  75   44   71 1

#	End of record

