#	Name: ASD02030012
#	Creating user name:	WinNT
#	Creation time:	15. 06. 2019 20:14

#	Modifying user name:	WinNT
#	Modification time:	15. 06. 2019 20:14

#	Program:	/corina/corina34_cracker 3.40 0067  02.08.2006

@<TRIPOS>MOLECULE
ASD02030012
  49   50    0    0    0
SMALL
NO_CHARGES


@<TRIPOS>ATOM
   1 C1             0.8086     0.6927     0.5684 C.ar    
   2 C2             0.6786    -0.6825     0.4753 C.ar    
   3 C3            -0.5795    -1.2559     0.4261 C.ar    
   4 C4            -1.7056    -0.4559     0.4699 C.ar    
   5 C5            -1.5758     0.9175     0.5624 C.ar    
   6 C6            -0.3199     1.4915     0.6179 C.ar    
   7 Cl7            2.3865     1.4138     0.6302 Cl      
   8 Cl8            2.0936    -1.6868     0.4198 Cl      
   9 C9            -3.0758    -1.0810     0.4163 C.3     
  10 C10           -3.5520    -1.3887     1.8374 C.3     
  11 N11           -4.8876    -1.9980     1.7851 N.3     
  12 C12           -5.3781    -2.3079     3.1347 C.3     
  13 C13           -6.7684    -2.9395     3.0395 C.3     
  14 C14           -7.2792    -3.2622     4.4452 C.3     
  15 O15           -8.5245    -3.9568     4.3516 O.3     
  16 O16           -7.6647    -2.0249     2.4053 O.3     
  17 C17           -9.1184    -4.3198     5.5200 C.ar    
  18 C18          -10.3288    -4.9969     5.5013 C.ar    
  19 C19          -10.9323    -5.3662     6.6874 C.ar    
  20 C20          -10.3269    -5.0596     7.8989 C.ar    
  21 C21           -9.1151    -4.3817     7.9167 C.ar    
  22 C22           -8.5104    -4.0178     6.7296 C.ar    
  23 N23          -10.9380    -5.4331     9.1011 N.am    
  24 S24          -11.6963    -4.2937    10.0334 S.o2    
  25 C25          -13.0548    -3.6896     8.9942 C.3     
  26 O26          -12.2031    -5.0272    11.1400 O.2     
  27 O27          -10.7171    -3.2798    10.2132 O.2     
  28 H28           -0.6815    -2.3285     0.3531 H       
  29 H29           -2.4565     1.5417     0.5962 H       
  30 H30           -0.2192     2.5644     0.6901 H       
  31 H31           -3.7722    -0.3898    -0.0585 H       
  32 H32           -3.0314    -2.0050    -0.1601 H       
  33 H33           -2.8556    -2.0800     2.3121 H       
  34 H34           -3.5964    -0.4647     2.4138 H       
  35 H35           -5.5371    -1.4038     1.2919 H       
  36 H36           -4.6944    -3.0055     3.6185 H       
  37 H37           -5.4352    -1.3902     3.7201 H       
  38 H38           -6.7113    -3.8572     2.4541 H       
  39 H39           -6.5517    -3.8886     4.9612 H       
  40 H40           -7.4208    -2.3359     5.0019 H       
  41 H41           -7.7646    -1.1842     2.8726 H       
  42 H42          -10.7996    -5.2349     4.5590 H       
  43 H43          -11.8749    -5.8931     6.6726 H       
  44 H44           -8.6437    -4.1428     8.8585 H       
  45 H45           -7.5678    -3.4909     6.7432 H       
  46 H46          -10.9173    -6.3593     9.3884 H       
  47 H47          -13.6671    -4.5314     8.6710 H       
  48 H48          -13.6677    -2.9929     9.5661 H       
  49 H49          -12.6458    -3.1813     8.1209 H       
@<TRIPOS>BOND
   1    1    2 ar
   2    1    7 1
   3    1    6 ar
   4    2    3 ar
   5    2    8 1
   6    3    4 ar
   7    3   28 1
   8    4    5 ar
   9    4    9 1
  10    5    6 ar
  11    5   29 1
  12    6   30 1
  13    9   10 1
  14    9   31 1
  15    9   32 1
  16   10   11 1
  17   10   33 1
  18   10   34 1
  19   11   12 1
  20   11   35 1
  21   12   13 1
  22   12   36 1
  23   12   37 1
  24   13   14 1
  25   13   16 1
  26   13   38 1
  27   14   15 1
  28   14   39 1
  29   14   40 1
  30   15   17 1
  31   16   41 1
  32   17   18 ar
  33   17   22 ar
  34   18   19 ar
  35   18   42 1
  36   19   20 ar
  37   19   43 1
  38   20   21 ar
  39   20   23 1
  40   21   22 ar
  41   21   44 1
  42   22   45 1
  43   23   24 am
  44   23   46 1
  45   24   25 1
  46   24   26 2
  47   24   27 2
  48   25   47 1
  49   25   48 1
  50   25   49 1

#	End of record

