#	Name: ASD08150313
#	Creating user name:	WinNT
#	Creation time:	15. 06. 2019 21:15

#	Modifying user name:	WinNT
#	Modification time:	15. 06. 2019 21:15

#	Program:	/corina/corina34_cracker 3.40 0067  02.08.2006

@<TRIPOS>MOLECULE
ASD08150313
  62   67    0    0    0
SMALL
NO_CHARGES


@<TRIPOS>ATOM
   1 N1            -2.4085     2.8370    -3.6848 N.am    
   2 C2            -1.9107     1.7162    -4.2423 C.2     
   3 C3            -1.2210     1.7638    -5.4707 C.2     
   4 C4            -1.0486     2.9478    -6.1120 C.2     
   5 C5            -1.5710     4.1288    -5.5283 C.ar    
   6 C6            -1.4205     5.3823    -6.1518 C.ar    
   7 N7            -1.9039     6.4702    -5.6112 N.ar    
   8 C8            -2.5649     6.4588    -4.4437 C.ar    
   9 C9            -2.7634     5.2419    -3.7461 C.ar    
  10 C10           -2.2527     4.0465    -4.3042 C.ar    
  11 C11           -3.4536     5.2409    -2.5300 C.ar    
  12 C12           -3.9373     6.4343    -2.0191 C.ar    
  13 C13           -3.7374     7.6345    -2.7153 C.ar    
  14 C14           -3.0673     7.6518    -3.8987 C.ar    
  15 O15           -2.0583     0.6463    -3.6765 O.2     
  16 C16           -4.6706     6.4421    -0.7296 C.ar    
  17 C17           -3.0953     2.7624    -2.4658 C.ar    
  18 C18           -4.3152     2.1017    -2.3953 C.ar    
  19 C19           -4.9917     2.0282    -1.1947 C.ar    
  20 C20           -4.4524     2.6146    -0.0564 C.ar    
  21 C21           -3.2324     3.2748    -0.1270 C.ar    
  22 C22           -2.5536     3.3440    -1.3271 C.ar    
  23 N23           -5.1379     2.5406     1.1598 N.3     
  24 C24           -4.5260     7.5008     0.1707 C.ar    
  25 C25           -4.9038     1.2478     1.8183 C.3     
  26 C26           -5.6045     1.2373     3.1790 C.3     
  27 N27           -7.0421     1.4755     2.9886 N.3     
  28 C28           -7.2761     2.7682     2.3301 C.3     
  29 C29           -6.5754     2.7788     0.9694 C.3     
  30 N30           -5.1969     7.4707     1.3089 N.ar    
  31 C31           -5.9962     6.4567     1.5998 C.ar    
  32 N32           -6.1598     5.4357     0.7736 N.ar    
  33 C33           -5.5283     5.3938    -0.3865 C.ar    
  34 C34           -2.6474     3.9113     1.1074 C.3     
  35 F35           -1.2678     3.6819     1.1412 F       
  36 F36           -2.8907     5.2887     1.0817 F       
  37 F37           -3.2408     3.3541     2.2452 F       
  38 O38           -6.6658     6.4638     2.7772 O.3     
  39 C39           -7.1830     5.2136     3.2369 C.3     
  40 H40           -0.8282     0.8554    -5.9030 H       
  41 H41           -0.5206     2.9892    -7.0532 H       
  42 H42           -0.8958     5.4463    -7.0936 H       
  43 H43           -3.6088     4.3167    -1.9933 H       
  44 H44           -4.1199     8.5579    -2.3061 H       
  45 H45           -2.9220     8.5856    -4.4215 H       
  46 H46           -4.7344     1.6459    -3.2801 H       
  47 H47           -5.9405     1.5151    -1.1401 H       
  48 H48           -1.6030     3.8537    -1.3811 H       
  49 H49           -3.8752     8.3313    -0.0599 H       
  50 H50           -5.3031     0.4458     1.1975 H       
  51 H51           -3.8332     1.1002     1.9595 H       
  52 H52           -5.4565     0.2688     3.6567 H       
  53 H53           -5.1863     2.0219     3.8095 H       
  54 H54           -7.4677     0.7226     2.4689 H       
  55 H55           -8.3468     2.9159     2.1889 H       
  56 H56           -6.8768     3.5702     2.9510 H       
  57 H57           -6.7234     3.7473     0.4917 H       
  58 H58           -6.9937     1.9942     0.3389 H       
  59 H59           -5.6669     4.5577    -1.0560 H       
  60 H60           -8.0500     5.3910     3.8733 H       
  61 H61           -7.4784     4.6060     2.3815 H       
  62 H62           -6.4152     4.6901     3.8066 H       
@<TRIPOS>BOND
   1    1    2 am
   2    1   10 1
   3    1   17 1
   4    2    3 1
   5    2   15 2
   6    3    4 2
   7    3   40 1
   8    4    5 1
   9    4   41 1
  10    5    6 ar
  11    5   10 ar
  12    6    7 ar
  13    6   42 1
  14    7    8 ar
  15    8    9 ar
  16    8   14 ar
  17    9   10 ar
  18    9   11 ar
  19   11   12 ar
  20   11   43 1
  21   12   13 ar
  22   12   16 1
  23   13   14 ar
  24   13   44 1
  25   14   45 1
  26   16   24 ar
  27   16   33 ar
  28   17   18 ar
  29   17   22 ar
  30   18   19 ar
  31   18   46 1
  32   19   20 ar
  33   19   47 1
  34   20   21 ar
  35   20   23 1
  36   21   22 ar
  37   21   34 1
  38   22   48 1
  39   23   25 1
  40   23   29 1
  41   24   30 ar
  42   24   49 1
  43   25   26 1
  44   25   50 1
  45   25   51 1
  46   26   27 1
  47   26   52 1
  48   26   53 1
  49   27   28 1
  50   27   54 1
  51   28   29 1
  52   28   55 1
  53   28   56 1
  54   29   57 1
  55   29   58 1
  56   30   31 ar
  57   31   32 ar
  58   31   38 1
  59   32   33 ar
  60   33   59 1
  61   34   35 1
  62   34   36 1
  63   34   37 1
  64   38   39 1
  65   39   60 1
  66   39   61 1
  67   39   62 1

#	End of record

