#	Name: ASD05062017
#	Creating user name:	WinNT
#	Creation time:	15. 06. 2019 20:56

#	Modifying user name:	WinNT
#	Modification time:	15. 06. 2019 20:56

#	Program:	/corina/corina34_cracker 3.40 0067  02.08.2006

@<TRIPOS>MOLECULE
ASD05062017
  73   74    0    0    0
SMALL
NO_CHARGES


@<TRIPOS>ATOM
   1 C1            -0.0215     1.1755    -0.1084 C.ar    
   2 C2             0.0215    -0.2125     0.0186 C.ar    
   3 C3            -1.1568    -0.9447     0.0832 C.ar    
   4 C4            -2.3744    -0.3039     0.0223 C.ar    
   5 C5            -2.4261     1.0892    -0.1051 C.ar    
   6 C6            -1.2385     1.8268    -0.1649 C.ar    
   7 C7            -3.7242     1.7757    -0.1704 C.2     
   8 C8            -4.8694     1.0623    -0.1074 C.2     
   9 C9            -6.1218     1.7246    -0.1704 C.2     
  10 O10           -7.2658     1.0119    -0.1075 O.3     
  11 O11           -6.1648     2.9352    -0.2811 O.2     
  12 C12           -8.4910     1.7441    -0.1768 C.3     
  13 C13           -9.6707     0.7737    -0.0904 C.3     
  14 N14           -9.6779     0.1298     1.2255 N.am    
  15 C15          -10.8296    -0.3515     1.7339 C.2     
  16 C16          -10.8369    -0.9945     3.0478 C.2     
  17 O17          -11.8637    -0.2511     1.0997 O.2     
  18 C18          -11.9901    -1.4764     3.5569 C.2     
  19 C19          -11.9973    -2.1227     4.8776 C.ar    
  20 C20          -10.8097    -2.2391     5.6082 C.ar    
  21 C21          -10.8191    -2.8452     6.8455 C.ar    
  22 C22          -12.0046    -3.3419     7.3703 C.ar    
  23 C23          -13.1925    -3.2297     6.6482 C.ar    
  24 C24          -13.1931    -2.6180     5.4098 C.ar    
  25 C25           -9.5368    -0.2765    -1.1629 C.2     
  26 O26           -9.4558    -1.4432    -0.8592 O.2     
  27 O27            1.2193    -0.8502     0.0787 O.3     
  28 O28            1.3015    -0.3970     2.2404 O.2     
  29 C29            1.8467    -0.8582     1.2658 C.2     
  30 C30            3.2309    -1.4425     1.3826 C.3     
  31 O31            1.1346     1.8885    -0.1709 O.3     
  32 O32            1.3298     1.3001    -2.2922 O.2     
  33 C33            1.7538     1.9426    -1.3608 C.2     
  34 C34            2.9775     2.8046    -1.5350 C.3     
  35 O35           -9.5076     0.0842    -2.4555 O.3     
  36 C36           -9.3768    -0.9805    -3.4341 C.3     
  37 O37          -14.3514    -3.7175     7.1659 O.3     
  38 O38          -14.6587    -1.7807     8.1850 O.2     
  39 C39          -15.0325    -2.9145     7.9987 C.2     
  40 C40          -16.2632    -3.4273     8.7012 C.3     
  41 O41          -12.0074    -3.9392     8.5903 O.3     
  42 O42          -11.8766    -5.9009     7.5804 O.2     
  43 C43          -11.9895    -5.2816     8.6118 C.2     
  44 C44          -12.1100    -6.0159     9.9223 C.3     
  45 H45           -1.1183    -2.0196     0.1812 H       
  46 H46           -3.2890    -0.8760     0.0725 H       
  47 H47           -1.2732     2.9018    -0.2629 H       
  48 H48           -3.7624     2.8505    -0.2687 H       
  49 H49           -4.8312    -0.0126    -0.0091 H       
  50 H50           -8.5397     2.4501     0.6523 H       
  51 H51           -8.5363     2.2881    -1.1203 H       
  52 H52          -10.6026     1.3211    -0.2322 H       
  53 H53           -8.8539     0.0498     1.7308 H       
  54 H54           -9.9193    -1.0836     3.6105 H       
  55 H55          -12.9076    -1.3873     2.9942 H       
  56 H56           -9.8859    -1.8544     5.2022 H       
  57 H57           -9.9018    -2.9344     7.4085 H       
  58 H58          -14.1124    -2.5301     4.8498 H       
  59 H59            3.9708    -0.6626     1.2022 H       
  60 H60            3.3698    -1.8506     2.3837 H       
  61 H61            3.3533    -2.2367     0.6462 H       
  62 H62            3.2071     3.3040    -0.5937 H       
  63 H63            3.8216     2.1817    -1.8311 H       
  64 H64            2.7890     3.5516    -2.3061 H       
  65 H65           -8.4469    -1.5218    -3.2600 H       
  66 H66          -10.2192    -1.6658    -3.3402 H       
  67 H67           -9.3662    -0.5531    -4.4367 H       
  68 H68          -16.4424    -4.4625     8.4110 H       
  69 H69          -16.1153    -3.3727     9.7797 H       
  70 H70          -17.1221    -2.8175     8.4209 H       
  71 H71          -12.2024    -5.2956    10.7352 H       
  72 H72          -12.9929    -6.6548     9.9009 H       
  73 H73          -11.2220    -6.6283    10.0786 H       
@<TRIPOS>BOND
   1    1    2 ar
   2    1   31 1
   3    1    6 ar
   4    2    3 ar
   5    2   27 1
   6    3    4 ar
   7    3   45 1
   8    4    5 ar
   9    4   46 1
  10    5    6 ar
  11    5    7 1
  12    6   47 1
  13    7    8 2
  14    7   48 1
  15    8    9 1
  16    8   49 1
  17    9   10 1
  18    9   11 2
  19   10   12 1
  20   12   13 1
  21   12   50 1
  22   12   51 1
  23   13   14 1
  24   13   25 1
  25   13   52 1
  26   14   15 am
  27   14   53 1
  28   15   16 1
  29   15   17 2
  30   16   18 2
  31   16   54 1
  32   18   19 1
  33   18   55 1
  34   19   20 ar
  35   19   24 ar
  36   20   21 ar
  37   20   56 1
  38   21   22 ar
  39   21   57 1
  40   22   23 ar
  41   22   41 1
  42   23   24 ar
  43   23   37 1
  44   24   58 1
  45   25   26 2
  46   25   35 1
  47   27   29 1
  48   28   29 2
  49   29   30 1
  50   30   59 1
  51   30   60 1
  52   30   61 1
  53   31   33 1
  54   32   33 2
  55   33   34 1
  56   34   62 1
  57   34   63 1
  58   34   64 1
  59   35   36 1
  60   36   65 1
  61   36   66 1
  62   36   67 1
  63   37   39 1
  64   38   39 2
  65   39   40 1
  66   40   68 1
  67   40   69 1
  68   40   70 1
  69   41   43 1
  70   42   43 2
  71   43   44 1
  72   44   71 1
  73   44   72 1
  74   44   73 1

#	End of record

