#	Name: ASD04670003
#	Creating user name:	WinNT
#	Creation time:	15. 06. 2019 20:52

#	Modifying user name:	WinNT
#	Modification time:	15. 06. 2019 20:52

#	Program:	/corina/corina34_cracker 3.40 0067  02.08.2006

@<TRIPOS>MOLECULE
ASD04670003
  76   80    0    0    0
SMALL
NO_CHARGES


@<TRIPOS>ATOM
   1 P1            -0.0180     1.4758     0.0102 P.3     
   2 O2             0.0021    -0.0041     0.0020 O.2     
   3 O3             1.4924     2.0330    -0.0013 O.3     
   4 O4            -0.7967     2.0091    -1.2942 O.3     
   5 C5            -0.4354     1.6326    -2.6245 C.3     
   6 C6            -1.3752     2.3148    -3.6206 C.3     
   7 O7            -1.1664     3.7368    -3.5945 O.3     
   8 C8            -1.0630     1.8322    -5.0505 C.3     
   9 O9            -2.2083     1.2009    -5.6265 O.3     
  10 C10           -0.7142     3.1289    -5.8209 C.3     
  11 O11           -1.2875     3.1143    -7.1298 O.3     
  12 C12           -1.3761     4.2184    -4.9393 C.3     
  13 N13           -0.7146     5.5111    -5.1333 N.pl3   
  14 C14            0.3421     5.9918    -4.4188 C.2     
  15 N15            0.6757     7.1708    -4.8573 N.2     
  16 C16           -0.1433     7.5206    -5.8781 C.ar    
  17 C17           -0.2557     8.6445    -6.7145 C.ar    
  18 N18            0.6047     9.7194    -6.5754 N.pl3   
  19 N19           -1.2071     8.6508    -7.6422 N.ar    
  20 C20           -2.0324     7.6292    -7.7824 C.ar    
  21 N21           -1.9648     6.5568    -7.0223 N.ar    
  22 C22           -1.0413     6.4576    -6.0714 C.ar    
  23 O23           -0.7716     1.9950     1.3348 O.3     
  24 P24           -0.7058     1.5880     2.8911 P.3     
  25 O25           -0.5911     0.0524     3.0174 O.co2   
  26 O26            0.5263     2.2520     3.5454 O.co2   
  27 O27           -2.0434     2.0892     3.6339 O.3     
  28 C28           -2.3338     1.7889     5.0005 C.3     
  29 C29           -3.6760     2.4140     5.3859 C.3     
  30 O30           -4.7390     1.7767     4.6579 O.3     
  31 C31           -3.9480     2.1877     6.8857 C.3     
  32 O32           -4.0792     3.4384     7.5645 O.3     
  33 C33           -5.2874     1.4119     6.9156 C.3     
  34 O34           -6.1289     1.8878     7.9679 O.3     
  35 C35           -5.8904     1.7516     5.5287 C.3     
  36 N36           -6.8332     0.7124     5.1076 N.ar    
  37 C37           -8.1257     0.9554     5.1763 C.ar    
  38 C38           -9.0514    -0.0119     4.7839 C.ar    
  39 C39          -10.5023     0.2610     4.8611 C.2     
  40 O40          -10.8977     1.3356     5.2692 O.2     
  41 N41          -11.3866    -0.6816     4.4790 N.am    
  42 C42           -8.5830    -1.2455     4.3152 C.ar    
  43 C43           -7.2157    -1.4505     4.2622 C.ar    
  44 C44           -6.3631    -0.4382     4.6653 C.ar    
  45 P45           -0.4091     3.2391    -8.4733 P.3     
  46 O46            0.6350     2.1901    -8.4793 O.2     
  47 O47           -1.3628     3.0544    -9.7571 O.3     
  48 O48            0.2873     4.6897    -8.5263 O.3     
  49 H49            1.5557     2.9980     0.0033 H       
  50 H50            0.5909     1.9412    -2.8234 H       
  51 H51           -0.5166     0.5508    -2.7307 H       
  52 H52           -2.4109     2.0876    -3.3682 H       
  53 H53           -0.2139     1.1488    -5.0456 H       
  54 H54           -2.5062     0.4149    -5.1484 H       
  55 H55            0.3651     3.2723    -5.8726 H       
  56 H56           -2.4412     4.2945    -5.1581 H       
  57 H57            0.8302     5.4711    -3.6082 H       
  58 H58            1.2954     9.7029    -5.8946 H       
  59 H59            0.5170    10.4894    -7.1587 H       
  60 H60           -2.7913     7.6757    -8.5493 H       
  61 H61           -2.3853     0.7081     5.1320 H       
  62 H62           -1.5476     2.1953     5.6368 H       
  63 H63           -3.6643     3.4816     5.1660 H       
  64 H64           -3.1508     1.5938     7.3327 H       
  65 H65           -4.2514     3.3552     8.5124 H       
  66 H66           -5.1141     0.3402     7.0131 H       
  67 H67           -5.7527     1.7791     8.8521 H       
  68 H68           -6.3768     2.7268     5.5501 H       
  69 H69           -8.4721     1.9115     5.5399 H       
  70 H70          -11.0711    -1.5391     4.1534 H       
  71 H71          -12.3386    -0.5025     4.5297 H       
  72 H72           -9.2713    -2.0172     4.0035 H       
  73 H73           -6.8181    -2.3895     3.9065 H       
  74 H74           -5.2953    -0.5939     4.6210 H       
  75 H75           -0.8996     3.1178   -10.6036 H       
  76 H76           -0.3386     5.4268    -8.5251 H       
@<TRIPOS>BOND
   1    1    2 2
   2    1    3 1
   3    1    4 1
   4    1   23 1
   5    3   49 1
   6    4    5 1
   7    5    6 1
   8    5   50 1
   9    5   51 1
  10    6    7 1
  11    6    8 1
  12    6   52 1
  13    7   12 1
  14    8    9 1
  15    8   10 1
  16    8   53 1
  17    9   54 1
  18   10   11 1
  19   10   12 1
  20   10   55 1
  21   11   45 1
  22   12   13 1
  23   12   56 1
  24   13   14 1
  25   13   22 1
  26   14   15 2
  27   14   57 1
  28   15   16 1
  29   16   17 ar
  30   16   22 ar
  31   17   18 1
  32   17   19 ar
  33   18   58 1
  34   18   59 1
  35   19   20 ar
  36   20   21 ar
  37   20   60 1
  38   21   22 ar
  39   23   24 1
  40   24   25 ar
  41   24   26 ar
  42   24   27 1
  43   27   28 1
  44   28   29 1
  45   28   61 1
  46   28   62 1
  47   29   30 1
  48   29   31 1
  49   29   63 1
  50   30   35 1
  51   31   32 1
  52   31   33 1
  53   31   64 1
  54   32   65 1
  55   33   34 1
  56   33   35 1
  57   33   66 1
  58   34   67 1
  59   35   36 1
  60   35   68 1
  61   36   37 ar
  62   36   44 ar
  63   37   38 ar
  64   37   69 1
  65   38   39 1
  66   38   42 ar
  67   39   40 2
  68   39   41 am
  69   41   70 1
  70   41   71 1
  71   42   43 ar
  72   42   72 1
  73   43   44 ar
  74   43   73 1
  75   44   74 1
  76   45   46 2
  77   45   47 1
  78   45   48 1
  79   47   75 1
  80   48   76 1

#	End of record

