#	Name: ASD01810320
#	Creating user name:	WinNT
#	Creation time:	15. 06. 2019 19:24

#	Modifying user name:	WinNT
#	Modification time:	15. 06. 2019 19:24

#	Program:	/corina/corina34_cracker 3.40 0067  02.08.2006

@<TRIPOS>MOLECULE
ASD01810320
  56   59    0    0    0
SMALL
NO_CHARGES


@<TRIPOS>ATOM
   1 C1             1.1566     2.2518    -0.5139 C.ar    
   2 C2             0.7799     0.9167    -0.4989 C.ar    
   3 C3             1.7222    -0.0794    -0.3473 C.ar    
   4 C4             3.0694     0.2528    -0.2072 C.ar    
   5 C5             3.4463     1.6060    -0.2231 C.ar    
   6 C6             2.4818     2.6019    -0.3772 C.ar    
   7 N7             4.0215    -0.7325    -0.0539 N.pl3   
   8 C8             5.3259    -0.4655     0.0855 C.2     
   9 C9             5.8167     0.8249     0.0860 C.2     
  10 C10            4.8742     1.9439    -0.0741 C.2     
  11 O11            5.2571     3.1007    -0.0806 O.2     
  12 C12            3.5871    -2.1316    -0.0427 C.3     
  13 C13            3.4445    -2.6248    -1.4595 C.ar    
  14 C14            4.5275    -2.5711    -2.3215 C.ar    
  15 C15            4.4006    -3.0222    -3.6224 C.ar    
  16 C16            3.1819    -3.5309    -4.0638 C.ar    
  17 C17            2.0966    -3.5826    -3.1916 C.ar    
  18 C18            2.2344    -3.1348    -1.8934 C.ar    
  19 C19            3.0393    -4.0164    -5.4597 C.2     
  20 C20            7.2561     1.0768     0.2427 C.2     
  21 O21            7.7231     2.3414     0.2415 O.3     
  22 O22            8.0256     0.1448     0.3734 O.2     
  23 F23            1.3404    -1.3752    -0.3341 F       
  24 C24            1.9096    -4.5362    -6.0211 C.2     
  25 N25            2.1980    -4.8530    -7.2994 N.pl3   
  26 N26            3.5373    -4.5235    -7.5405 N.2     
  27 C27            4.0438    -4.0184    -6.4470 C.2     
  28 C28            1.2703    -5.4412    -8.2688 C.3     
  29 C29            1.2167    -4.5633    -9.5208 C.3     
  30 C30            0.2478    -5.1775   -10.5332 C.3     
  31 C31           -1.1709    -5.1535    -9.9609 C.3     
  32 C32            0.2875    -4.3698   -11.8320 C.3     
  33 F33            5.7089    -2.0770    -1.8908 F       
  34 H34            0.4079     3.0202    -0.6380 H       
  35 H35           -0.2622     0.6544    -0.6066 H       
  36 H36            2.7726     3.6419    -0.3896 H       
  37 H37            6.0174    -1.2870     0.2018 H       
  38 H38            4.3270    -2.7376     0.4803 H       
  39 H39            2.6271    -2.2099     0.4676 H       
  40 H40            5.2447    -2.9797    -4.2947 H       
  41 H41            1.1495    -3.9765    -3.5299 H       
  42 H42            1.3932    -3.1752    -1.2173 H       
  43 H43            8.6773     2.4571     0.3477 H       
  44 H44            0.9570    -4.6700    -5.5302 H       
  45 H45            5.0580    -3.6694    -6.3202 H       
  46 H46            1.6128    -6.4399    -8.5398 H       
  47 H47            0.2759    -5.5054    -7.8273 H       
  48 H48            0.8742    -3.5646    -9.2499 H       
  49 H49            2.2111    -4.4990    -9.9624 H       
  50 H50            0.5400    -6.2077   -10.7369 H       
  51 H51           -1.1992    -5.7289    -9.0356 H       
  52 H52           -1.4631    -4.1233    -9.7571 H       
  53 H53           -1.8611    -5.5910   -10.6821 H       
  54 H54            1.2983    -4.3869   -12.2398 H       
  55 H55           -0.4027    -4.8073   -12.5533 H       
  56 H56           -0.0046    -3.3396   -11.6283 H       
@<TRIPOS>BOND
   1    1    2 ar
   2    1    6 ar
   3    1   34 1
   4    2    3 ar
   5    2   35 1
   6    3    4 ar
   7    3   23 1
   8    4    5 ar
   9    4    7 1
  10    5    6 ar
  11    5   10 1
  12    6   36 1
  13    7    8 1
  14    7   12 1
  15    8    9 2
  16    8   37 1
  17    9   10 1
  18    9   20 1
  19   10   11 2
  20   12   13 1
  21   12   38 1
  22   12   39 1
  23   13   14 ar
  24   13   18 ar
  25   14   15 ar
  26   14   33 1
  27   15   16 ar
  28   15   40 1
  29   16   17 ar
  30   16   19 1
  31   17   18 ar
  32   17   41 1
  33   18   42 1
  34   19   24 2
  35   19   27 1
  36   20   21 1
  37   20   22 2
  38   21   43 1
  39   24   25 1
  40   24   44 1
  41   25   26 1
  42   25   28 1
  43   26   27 2
  44   27   45 1
  45   28   29 1
  46   28   46 1
  47   28   47 1
  48   29   30 1
  49   29   48 1
  50   29   49 1
  51   30   31 1
  52   30   32 1
  53   30   50 1
  54   31   51 1
  55   31   52 1
  56   31   53 1
  57   32   54 1
  58   32   55 1
  59   32   56 1

#	End of record

