#	Name: ASD01884316
#	Creating user name:	WinNT
#	Creation time:	15. 06. 2019 19:48

#	Modifying user name:	WinNT
#	Modification time:	15. 06. 2019 19:48

#	Program:	/corina/corina34_cracker 3.40 0067  02.08.2006

@<TRIPOS>MOLECULE
ASD01884316
  59   62    0    0    0
SMALL
NO_CHARGES


@<TRIPOS>ATOM
   1 C1            -0.0168     1.3884     0.0097 C.2     
   2 C2             0.0021    -0.0041     0.0020 C.2     
   3 C3            -1.2095    -0.6965     0.0104 C.2     
   4 C4            -2.3831    -0.0157     0.0252 C.2     
   5 N5            -2.4093     1.3392     0.0327 N.am    
   6 C6            -1.2693     2.0558     0.0312 C.2     
   7 O7            -1.3129     3.2741     0.0380 O.2     
   8 C8            -3.6983     2.0352     0.0483 C.3     
   9 C9            -4.1273     2.2662     1.4744 C.ar    
  10 C10            1.2059     2.1337     0.0020 C.1     
  11 N11            2.1759     2.7249    -0.0041 N.1     
  12 C12            1.3105    -0.7515    -0.0155 C.3     
  13 N13            1.6901    -1.1066     1.3585 N.3     
  14 C14            2.8290    -2.0352     1.3670 C.3     
  15 C15            3.2431    -2.3172     2.8131 C.3     
  16 N16            2.1012    -2.8822     3.5456 N.3     
  17 C17            0.9623    -1.9536     3.5371 C.3     
  18 C18            0.5482    -1.6716     2.0910 C.3     
  19 C19           -3.7545     3.4263     2.1279 C.ar    
  20 C20           -4.1464     3.6404     3.4352 C.ar    
  21 C21           -4.9147     2.6903     4.0923 C.ar    
  22 C22           -5.2875     1.5272     3.4343 C.ar    
  23 C23           -4.8977     1.3204     2.1252 C.ar    
  24 C24            2.4808    -3.2373     4.9196 C.3     
  25 C25            1.2440    -3.5790     5.7100 C.ar    
  26 C26            0.7693    -4.8808     5.7576 C.ar    
  27 C27           -0.3677    -5.1566     6.4932 C.ar    
  28 N28           -0.9989    -4.1989     7.1439 N.ar    
  29 C29           -0.5761    -2.9500     7.1211 C.ar    
  30 C30            0.5571    -2.6001     6.4115 C.ar    
  31 O31           -5.3012     2.8985     5.3784 O.3     
  32 C32           -6.0908     1.8776     5.9919 C.3     
  33 F33           -5.3726     0.6771     6.0047 F       
  34 F34           -6.3981     2.2513     7.3045 F       
  35 F35           -7.2748     1.7050     5.2669 F       
  36 H36           -1.2130    -1.7765     0.0046 H       
  37 H37           -3.3137    -0.5638     0.0308 H       
  38 H38           -3.5999     2.9937    -0.4613 H       
  39 H39           -4.4456     1.4275    -0.4619 H       
  40 H40            1.2023    -1.6595    -0.6087 H       
  41 H41            2.0835    -0.1207    -0.4544 H       
  42 H42            2.5411    -2.9683     0.8826 H       
  43 H43            3.6659    -1.5892     0.8295 H       
  44 H44            4.0692    -3.0283     2.8228 H       
  45 H45            3.5569    -1.3883     3.2893 H       
  46 H46            0.1254    -2.3996     4.0746 H       
  47 H47            1.2502    -1.0205     4.0215 H       
  48 H48           -0.2779    -0.9605     2.0813 H       
  49 H49            0.2344    -2.6005     1.6148 H       
  50 H50           -3.1561     4.1654     1.6161 H       
  51 H51           -3.8547     4.5465     3.9453 H       
  52 H52           -5.8856     0.7861     3.9437 H       
  53 H53           -5.1876     0.4151     1.6125 H       
  54 H54            3.1494    -4.0979     4.9010 H       
  55 H55            2.9883    -2.3929     5.3861 H       
  56 H56            1.2814    -5.6694     5.2263 H       
  57 H57           -0.7439    -6.1681     6.5354 H       
  58 H58           -1.1196    -2.1925     7.6663 H       
  59 H59            0.8985    -1.5755     6.3969 H       
@<TRIPOS>BOND
   1    1    2 2
   2    1   10 1
   3    1    6 1
   4    2    3 1
   5    2   12 1
   6    3    4 2
   7    3   36 1
   8    4    5 1
   9    4   37 1
  10    5    6 am
  11    5    8 1
  12    6    7 2
  13    8    9 1
  14    8   38 1
  15    8   39 1
  16    9   19 ar
  17    9   23 ar
  18   10   11 3
  19   12   13 1
  20   12   40 1
  21   12   41 1
  22   13   14 1
  23   13   18 1
  24   14   15 1
  25   14   42 1
  26   14   43 1
  27   15   16 1
  28   15   44 1
  29   15   45 1
  30   16   17 1
  31   16   24 1
  32   17   18 1
  33   17   46 1
  34   17   47 1
  35   18   48 1
  36   18   49 1
  37   19   20 ar
  38   19   50 1
  39   20   21 ar
  40   20   51 1
  41   21   31 1
  42   21   22 ar
  43   22   23 ar
  44   22   52 1
  45   23   53 1
  46   24   25 1
  47   24   54 1
  48   24   55 1
  49   25   26 ar
  50   25   30 ar
  51   26   27 ar
  52   26   56 1
  53   27   28 ar
  54   27   57 1
  55   28   29 ar
  56   29   30 ar
  57   29   58 1
  58   30   59 1
  59   31   32 1
  60   32   33 1
  61   32   34 1
  62   32   35 1

#	End of record

