#	Name: ASD01911438
#	Creating user name:	WinNT
#	Creation time:	15. 06. 2019 19:57

#	Modifying user name:	WinNT
#	Modification time:	15. 06. 2019 19:57

#	Program:	/corina/corina34_cracker 3.40 0067  02.08.2006

@<TRIPOS>MOLECULE
ASD01911438
  40   42    0    0    0
SMALL
NO_CHARGES


@<TRIPOS>ATOM
   1 N1            -0.0036     1.3813     0.2119 N.2     
   2 N2             0.0015    -0.0033     0.0010 N.pl3   
   3 C3             1.2359     1.8189     0.1322 C.2     
   4 C4             2.0746     0.7238    -0.1330 C.2     
   5 C5             1.2922    -0.3913    -0.2101 C.2     
   6 C6             1.7586    -1.7699    -0.4744 C.ar    
   7 C7             1.6719     3.2285     0.2941 C.ar    
   8 C8            -1.1720    -0.8802     0.0066 C.3     
   9 C9            -1.6609    -1.0742    -1.4057 C.2     
  10 O10           -2.7330    -1.8457    -1.6447 O.3     
  11 O11           -1.0878    -0.5353    -2.3227 O.2     
  12 C12            0.7339     4.2248     0.5557 C.ar    
  13 C13            3.0213     3.5591     0.1908 C.ar    
  14 C14            3.4214     4.8713     0.3426 C.ar    
  15 C15            2.4853     5.8573     0.5970 C.ar    
  16 C16            1.1449     5.5338     0.7059 C.ar    
  17 C17            3.1006    -2.0005    -0.7765 C.ar    
  18 N18            0.8973    -2.7793    -0.4170 N.ar    
  19 C19            1.2730    -4.0210    -0.6458 C.ar    
  20 C20            2.5871    -4.3199    -0.9558 C.ar    
  21 C21            3.5215    -3.2958    -1.0214 C.ar    
  22 C22            0.2567    -5.1311    -0.5682 C.3     
  23 C23            3.0021    -5.7454    -1.2140 C.3     
  24 H24            3.1472     0.7584    -0.2545 H       
  25 H25           -0.9019    -1.8461     0.4335 H       
  26 H26           -1.9618    -0.4265     0.6053 H       
  27 H27           -3.0090    -1.9402    -2.5667 H       
  28 H28           -0.3130     3.9733     0.6405 H       
  29 H29            3.7531     2.7899    -0.0075 H       
  30 H30            4.4673     5.1286     0.2630 H       
  31 H31            2.8027     6.8828     0.7156 H       
  32 H32            0.4181     6.3076     0.9042 H       
  33 H33            3.8012    -1.1797    -0.8191 H       
  34 H34            4.5535    -3.5047    -1.2616 H       
  35 H35           -0.1968    -5.2777    -1.5484 H       
  36 H36            0.7479    -6.0519    -0.2536 H       
  37 H37           -0.5159    -4.8665     0.1537 H       
  38 H38            2.8938    -5.9688    -2.2754 H       
  39 H39            4.0426    -5.8801    -0.9187 H       
  40 H40            2.3699    -6.4185    -0.6348 H       
@<TRIPOS>BOND
   1    1    2 1
   2    1    3 2
   3    2    8 1
   4    2    5 1
   5    3    4 1
   6    3    7 1
   7    4    5 2
   8    4   24 1
   9    5    6 1
  10    6   18 ar
  11    6   17 ar
  12    7   12 ar
  13    7   13 ar
  14    8    9 1
  15    8   25 1
  16    8   26 1
  17    9   10 1
  18    9   11 2
  19   10   27 1
  20   12   16 ar
  21   12   28 1
  22   13   14 ar
  23   13   29 1
  24   14   15 ar
  25   14   30 1
  26   15   16 ar
  27   15   31 1
  28   16   32 1
  29   17   21 ar
  30   17   33 1
  31   18   19 ar
  32   19   20 ar
  33   19   22 1
  34   20   21 ar
  35   20   23 1
  36   21   34 1
  37   22   35 1
  38   22   36 1
  39   22   37 1
  40   23   38 1
  41   23   39 1
  42   23   40 1

#	End of record

