#	Name: ASD03331069
#	Creating user name:	WinNT
#	Creation time:	15. 06. 2019 20:38

#	Modifying user name:	WinNT
#	Modification time:	15. 06. 2019 20:38

#	Program:	/corina/corina34_cracker 3.40 0067  02.08.2006

@<TRIPOS>MOLECULE
ASD03331069
  63   66    0    0    0
SMALL
NO_CHARGES


@<TRIPOS>ATOM
   1 N1            -0.2129     1.1248    -0.5700 N.pl3   
   2 C2            -0.2871    -0.1970    -0.2591 C.2     
   3 C3             0.8784    -1.0804     0.1022 C.3     
   4 N4             1.7134    -0.3930     1.0996 N.3     
   5 C5             2.7323     0.4383     0.4559 C.3     
   6 C6             2.2104     1.0270    -0.8516 C.3     
   7 C7             1.0094     1.9337    -0.5691 C.3     
   8 C8            -1.4765     1.5466    -0.8657 C.2     
   9 N9            -2.2996     0.5337    -0.7262 N.2     
  10 C10           -1.5969    -0.5574    -0.3495 C.2     
  11 C11           -2.1493    -1.8975    -0.0848 C.2     
  12 O12           -1.4110    -2.8046     0.2490 O.2     
  13 N13           -3.4727    -2.1182    -0.2127 N.am    
  14 C14           -1.8553     2.9162    -1.2747 C.ar    
  15 C15           -2.7148     3.1118    -2.3592 C.ar    
  16 C16           -3.0659     4.3937    -2.7367 C.ar    
  17 C17           -2.5673     5.4836    -2.0427 C.ar    
  18 C18           -1.7130     5.2949    -0.9652 C.ar    
  19 C19           -1.3606     4.0177    -0.5756 C.ar    
  20 F20           -1.2295     6.3624    -0.2931 F       
  21 F21           -2.9133     6.7350    -2.4162 F       
  22 F22           -3.2011     2.0494    -3.0375 F       
  23 C23            2.3264    -1.3546     2.0256 C.3     
  24 C24           -5.3114    -3.6217    -0.7106 C.2     
  25 C25           -4.0219    -3.4506     0.0504 C.3     
  26 C26           -4.2898    -3.6050     1.5489 C.3     
  27 C27           -5.3449    -2.5869     1.9859 C.3     
  28 N28           -5.7180    -4.8526    -1.0793 N.am    
  29 S29           -7.5958    -6.5210    -2.2052 S.3     
  30 C30           -6.9561    -5.0223    -1.6880 C.2     
  31 N31           -7.7940    -4.0674    -1.9453 N.2     
  32 C32           -8.9278    -4.4084    -2.5286 C.2     
  33 C33           -9.0539    -5.7136    -2.7760 C.2     
  34 O34           -5.9832    -2.6518    -0.9912 O.2     
  35 C35           -4.7978    -5.0200     1.8330 C.3     
  36 C36           -2.9944    -3.3626     2.3262 C.3     
  37 H37            0.5098    -2.0176     0.5192 H       
  38 H38            1.4705    -1.2853    -0.7897 H       
  39 H39            3.0097     1.2499     1.1286 H       
  40 H40            3.6124    -0.1704     0.2485 H       
  41 H41            2.9997     1.6090    -1.3275 H       
  42 H42            1.9060     0.2190    -1.5169 H       
  43 H43            0.9406     2.6989    -1.3422 H       
  44 H44            1.1319     2.4079     0.4047 H       
  45 H45           -4.0615    -1.3948    -0.4790 H       
  46 H46           -3.7300     4.5461    -3.5746 H       
  47 H47           -0.6993     3.8720     0.2658 H       
  48 H48            2.8952    -2.0922     1.4595 H       
  49 H49            2.9931    -0.8274     2.7081 H       
  50 H50            1.5459    -1.8576     2.5964 H       
  51 H51           -3.3071    -4.2082    -0.2708 H       
  52 H52           -6.2678    -2.7596     1.4322 H       
  53 H53           -5.5357    -2.6969     3.0535 H       
  54 H54           -4.9830    -1.5789     1.7835 H       
  55 H55           -5.1466    -5.6202    -0.9200 H       
  56 H56           -9.6918    -3.6893    -2.7847 H       
  57 H57           -9.9015    -6.1914    -3.2446 H       
  58 H58           -4.0205    -5.7421     1.5833 H       
  59 H59           -5.0513    -5.1097     2.8893 H       
  60 H60           -5.6836    -5.2161     1.2288 H       
  61 H61           -2.6324    -2.3546     2.1237 H       
  62 H62           -3.1852    -3.4726     3.3937 H       
  63 H63           -2.2427    -4.0879     2.0148 H       
@<TRIPOS>BOND
   1    1    2 1
   2    1    7 1
   3    1    8 1
   4    2    3 1
   5    2   10 2
   6    3    4 1
   7    3   37 1
   8    3   38 1
   9    4    5 1
  10    4   23 1
  11    5    6 1
  12    5   39 1
  13    5   40 1
  14    6    7 1
  15    6   41 1
  16    6   42 1
  17    7   43 1
  18    7   44 1
  19    8    9 2
  20    8   14 1
  21    9   10 1
  22   10   11 1
  23   11   12 2
  24   11   13 am
  25   13   25 1
  26   13   45 1
  27   14   15 ar
  28   14   19 ar
  29   15   16 ar
  30   15   22 1
  31   16   17 ar
  32   16   46 1
  33   17   18 ar
  34   17   21 1
  35   18   19 ar
  36   18   20 1
  37   19   47 1
  38   23   48 1
  39   23   49 1
  40   23   50 1
  41   24   28 am
  42   24   34 2
  43   24   25 1
  44   25   26 1
  45   25   51 1
  46   26   27 1
  47   26   35 1
  48   26   36 1
  49   27   52 1
  50   27   53 1
  51   27   54 1
  52   28   30 1
  53   28   55 1
  54   29   30 1
  55   29   33 1
  56   30   31 2
  57   31   32 1
  58   32   33 2
  59   32   56 1
  60   33   57 1
  61   35   58 1
  62   35   59 1
  63   35   60 1
  64   36   61 1
  65   36   62 1
  66   36   63 1

#	End of record

