#	Name: ASD01901262
#	Creating user name:	WinNT
#	Creation time:	15. 06. 2019 19:53

#	Modifying user name:	WinNT
#	Modification time:	15. 06. 2019 19:53

#	Program:	/corina/corina34_cracker 3.40 0067  02.08.2006

@<TRIPOS>MOLECULE
ASD01901262
  46   49    0    0    0
SMALL
NO_CHARGES


@<TRIPOS>ATOM
   1 C1            -0.3264     1.4052    -0.0024 C.ar    
   2 C2            -0.3406     0.0262    -0.0097 C.ar    
   3 C3             0.8486    -0.6815    -0.0103 C.ar    
   4 C4             2.0598    -0.0123    -0.0032 C.ar    
   5 C5             2.0898     1.3665     0.0040 C.ar    
   6 C6             0.8929     2.0879     0.0043 C.ar    
   7 C7             0.9159     3.5197     0.0118 C.1     
   8 C8             0.9347     4.6935     0.0179 C.1     
   9 C9             0.9576     6.1253     0.0255 C.ar    
  10 C10           -0.2137     8.2239     0.0397 C.ar    
  11 C11           -0.2405     6.8454     0.0320 C.ar    
  12 C12            2.1784     6.8068     0.0322 C.ar    
  13 C13            2.1966     8.1842     0.0399 C.ar    
  14 C14            1.0035     8.8973     0.0410 C.ar    
  15 N15            1.0268    10.2973     0.0488 N.am    
  16 N16            1.0685    12.2897     1.3105 N.am    
  17 C17            1.0457    10.9487     1.2222 C.2     
  18 C18            1.0354    10.9662    -1.1246 C.2     
  19 C19            1.0600    12.4390    -1.0886 C.ar    
  20 C20            1.0733    13.0736     0.1658 C.ar    
  21 C21            1.0968    14.4582     0.2337 C.ar    
  22 C22            1.0706    13.2004    -2.2551 C.ar    
  23 C23            1.0942    14.5765    -2.1677 C.ar    
  24 C24            1.1007    15.2013    -0.9299 C.ar    
  25 C25            1.0570    12.5254    -3.6024 C.3     
  26 C26            1.0882    12.9298     2.6282 C.3     
  27 O27            1.0415    10.2979     2.2491 O.2     
  28 O28            1.0236    10.3683    -2.1834 O.2     
  29 Cl29          -1.7005     9.1200     0.0472 Cl      
  30 H30           -1.2553     1.9562    -0.0065 H       
  31 H31           -1.2822    -0.5028    -0.0145 H       
  32 H32            0.8313    -1.7613    -0.0160 H       
  33 H33            2.9840    -0.5712    -0.0031 H       
  34 H34            3.0359     1.8874     0.0099 H       
  35 H35           -1.1856     6.3228     0.0306 H       
  36 H36            3.1062     6.2539     0.0316 H       
  37 H37            3.1395     8.7109     0.0454 H       
  38 H38            1.1116    14.9536     1.1932 H       
  39 H39            1.1025    15.1713    -3.0691 H       
  40 H40            1.1186    16.2798    -0.8755 H       
  41 H41            0.0312    12.2751    -3.8730 H       
  42 H42            1.4762    13.1985    -4.3503 H       
  43 H43            1.6538    11.6143    -3.5583 H       
  44 H44            1.0808    12.1643     3.4041 H       
  45 H45            1.9891    13.5359     2.7243 H       
  46 H46            0.2094    13.5654     2.7365 H       
@<TRIPOS>BOND
   1    1    2 ar
   2    1    6 ar
   3    1   30 1
   4    2    3 ar
   5    2   31 1
   6    3    4 ar
   7    3   32 1
   8    4    5 ar
   9    4   33 1
  10    5    6 ar
  11    5   34 1
  12    6    7 1
  13    7    8 3
  14    8    9 1
  15    9   12 ar
  16    9   11 ar
  17   10   11 ar
  18   10   14 ar
  19   10   29 1
  20   11   35 1
  21   12   13 ar
  22   12   36 1
  23   13   14 ar
  24   13   37 1
  25   14   15 1
  26   15   18 am
  27   15   17 am
  28   16   17 am
  29   16   20 1
  30   16   26 1
  31   17   27 2
  32   18   19 1
  33   18   28 2
  34   19   22 ar
  35   19   20 ar
  36   20   21 ar
  37   21   24 ar
  38   21   38 1
  39   22   23 ar
  40   22   25 1
  41   23   24 ar
  42   23   39 1
  43   24   40 1
  44   25   41 1
  45   25   42 1
  46   25   43 1
  47   26   44 1
  48   26   45 1
  49   26   46 1

#	End of record

