#	Name: ASD01913888
#	Creating user name:	WinNT
#	Creation time:	15. 06. 2019 20:02

#	Modifying user name:	WinNT
#	Modification time:	15. 06. 2019 20:02

#	Program:	/corina/corina34_cracker 3.40 0067  02.08.2006

@<TRIPOS>MOLECULE
ASD01913888
  45   47    0    0    0
SMALL
NO_CHARGES


@<TRIPOS>ATOM
   1 C1            -0.2295     1.4173    -0.1865 C.ar    
   2 C2            -0.1470    -0.0114    -0.1359 C.1     
   3 C3            -0.0794    -1.1828    -0.0945 C.1     
   4 C4             0.0031    -2.6115    -0.0439 C.ar    
   5 C5             0.0919    -3.2765     1.1883 C.ar    
   6 C6             0.1560    -5.3344    -0.0290 C.ar    
   7 N7             0.0659    -4.6783    -1.1762 N.ar    
   8 C8            -0.0094    -3.3644    -1.2201 C.ar    
   9 C9             0.1688    -4.6548     1.1853 C.ar    
  10 C10           -0.3177     2.0723    -1.4178 C.ar    
  11 C11           -0.3968     3.4486    -1.4587 C.ar    
  12 C12           -0.2281     2.1629     0.9954 C.ar    
  13 C13           -0.3886     4.1807    -0.2844 C.ar    
  14 C14           -0.3078     3.5386     0.9388 C.ar    
  15 N15            0.2331    -6.7251    -0.0380 N.am    
  16 C16           -0.9046    -7.4278    -0.0254 C.2     
  17 O17           -0.9369    -8.7690     0.0128 O.3     
  18 C18            0.2876    -9.4731    -0.3333 C.3     
  19 C19            1.4501    -8.8031     0.4118 C.3     
  20 C20            1.5529    -7.3502    -0.0667 C.3     
  21 O21            1.2022    -8.8348     1.8188 O.3     
  22 C22            2.3864    -8.8899     2.6166 C.3     
  23 C23            0.1783   -10.9390     0.0913 C.3     
  24 C24            0.5237    -9.3877    -1.8426 C.3     
  25 O25           -1.9586    -6.8237    -0.0493 O.2     
  26 H26            0.1002    -2.7238     2.1161 H       
  27 H27           -0.0819    -2.8643    -2.1746 H       
  28 H28            0.2386    -5.1996     2.1152 H       
  29 H29           -0.3235     1.5023    -2.3351 H       
  30 H30           -0.4650     3.9563    -2.4095 H       
  31 H31           -0.1651     1.6631     1.9507 H       
  32 H32           -0.4501     5.2583    -0.3226 H       
  33 H33           -0.3022     4.1165     1.8512 H       
  34 H34            2.3794    -9.3280     0.1903 H       
  35 H35            1.9473    -7.3307    -1.0826 H       
  36 H36            2.2243    -6.7989     0.5916 H       
  37 H37            2.9997    -8.0110     2.4178 H       
  38 H38            2.1132    -8.9113     3.6716 H       
  39 H39            2.9498    -9.7896     2.3689 H       
  40 H40           -0.6632   -11.4042    -0.4223 H       
  41 H41            1.0979   -11.4625    -0.1701 H       
  42 H42            0.0221   -10.9945     1.1686 H       
  43 H43            0.6127    -8.3423    -2.1378 H       
  44 H44            1.4421    -9.9167    -2.0972 H       
  45 H45           -0.3156    -9.8435    -2.3680 H       
@<TRIPOS>BOND
   1    1    2 1
   2    1   10 ar
   3    1   12 ar
   4    2    3 3
   5    3    4 1
   6    4    5 ar
   7    4    8 ar
   8    5    9 ar
   9    5   26 1
  10    6    7 ar
  11    6   15 1
  12    6    9 ar
  13    7    8 ar
  14    8   27 1
  15    9   28 1
  16   10   11 ar
  17   10   29 1
  18   11   13 ar
  19   11   30 1
  20   12   14 ar
  21   12   31 1
  22   13   14 ar
  23   13   32 1
  24   14   33 1
  25   15   16 am
  26   15   20 1
  27   16   17 1
  28   16   25 2
  29   17   18 1
  30   18   19 1
  31   18   23 1
  32   18   24 1
  33   19   20 1
  34   19   21 1
  35   19   34 1
  36   20   35 1
  37   20   36 1
  38   21   22 1
  39   22   37 1
  40   22   38 1
  41   22   39 1
  42   23   40 1
  43   23   41 1
  44   23   42 1
  45   24   43 1
  46   24   44 1
  47   24   45 1

#	End of record

