#	Name: ASD02560527
#	Creating user name:	WinNT
#	Creation time:	15. 06. 2019 20:25

#	Modifying user name:	WinNT
#	Modification time:	15. 06. 2019 20:25

#	Program:	/corina/corina34_cracker 3.40 0067  02.08.2006

@<TRIPOS>MOLECULE
ASD02560527
  45   47    0    0    0
SMALL
NO_CHARGES


@<TRIPOS>ATOM
   1 C1            -0.0108     1.2865     0.6674 C.ar    
   2 C2            -1.1505     1.6305     1.4003 C.ar    
   3 C3            -2.3327     0.9579     1.1875 C.ar    
   4 C4            -2.3940    -0.0633     0.2442 C.ar    
   5 C5            -1.2615    -0.4084    -0.4870 C.ar    
   6 C6            -0.0775     0.2639    -0.2835 C.ar    
   7 N7            -3.5923    -0.7424     0.0318 N.pl3   
   8 C8            -4.7991    -0.0722     0.1514 C.ar    
   9 N9            -5.9296    -0.7556     0.0562 N.ar    
  10 C10           -7.1022    -0.1427     0.1669 C.ar    
  11 C11           -7.1290     1.2340     0.3853 C.ar    
  12 C12           -5.9269     1.9106     0.4786 C.ar    
  13 N13           -4.7934     1.2356     0.3637 N.ar    
  14 O14           -8.2568    -0.8454     0.0684 O.3     
  15 C15           -8.1722    -2.1845    -0.1452 C.ar    
  16 C16           -8.1156    -3.0558     0.9347 C.ar    
  17 C17           -8.0298    -4.4151     0.7220 C.ar    
  18 C18           -8.0003    -4.9154    -0.5808 C.ar    
  19 C19           -8.0579    -4.0364    -1.6636 C.ar    
  20 C20           -8.1485    -2.6787    -1.4428 C.ar    
  21 C21           -7.9107    -6.3267    -0.8059 C.1     
  22 C22           -7.8373    -7.4838    -0.9904 C.1     
  23 C23           -7.7453    -8.9346    -1.2219 C.3     
  24 C24           -8.1476    -2.5147     2.3408 C.3     
  25 C25           -8.2112    -1.7288    -2.6111 C.3     
  26 C26            1.2206     1.9839     0.8861 C.1     
  27 N27            2.1975     2.5371     1.0596 N.1     
  28 H28           -1.1035     2.4227     2.1328 H       
  29 H29           -3.2134     1.2229     1.7536 H       
  30 H30           -1.3126    -1.2014    -1.2184 H       
  31 H31            0.8009    -0.0041    -0.8517 H       
  32 H32           -3.5816    -1.6843    -0.1999 H       
  33 H33           -8.0675     1.7600     0.4791 H       
  34 H34           -5.9125     2.9773     0.6471 H       
  35 H35           -7.9851    -5.0921     1.5623 H       
  36 H36           -8.0353    -4.4197    -2.6730 H       
  37 H37           -7.7347    -9.1316    -2.2939 H       
  38 H38           -6.8283    -9.3166    -0.7732 H       
  39 H39           -8.6046    -9.4299    -0.7699 H       
  40 H40           -9.1809    -2.4489     2.6814 H       
  41 H41           -7.5897    -3.1806     2.9992 H       
  42 H42           -7.6952    -1.5232     2.3589 H       
  43 H43           -9.2517    -1.5682    -2.8932 H       
  44 H44           -7.7597    -0.7773    -2.3303 H       
  45 H45           -7.6674    -2.1541    -3.4546 H       
@<TRIPOS>BOND
   1    1    2 ar
   2    1   26 1
   3    1    6 ar
   4    2    3 ar
   5    2   28 1
   6    3    4 ar
   7    3   29 1
   8    4    5 ar
   9    4    7 1
  10    5    6 ar
  11    5   30 1
  12    6   31 1
  13    7    8 1
  14    7   32 1
  15    8    9 ar
  16    8   13 ar
  17    9   10 ar
  18   10   11 ar
  19   10   14 1
  20   11   12 ar
  21   11   33 1
  22   12   13 ar
  23   12   34 1
  24   14   15 1
  25   15   16 ar
  26   15   20 ar
  27   16   17 ar
  28   16   24 1
  29   17   18 ar
  30   17   35 1
  31   18   19 ar
  32   18   21 1
  33   19   20 ar
  34   19   36 1
  35   20   25 1
  36   21   22 3
  37   22   23 1
  38   23   37 1
  39   23   38 1
  40   23   39 1
  41   24   40 1
  42   24   41 1
  43   24   42 1
  44   25   43 1
  45   25   44 1
  46   25   45 1
  47   26   27 3

#	End of record

