#	Name: ASD03910005
#	Creating user name:	WinNT
#	Creation time:	15. 06. 2019 20:47

#	Modifying user name:	WinNT
#	Modification time:	15. 06. 2019 20:47

#	Program:	/corina/corina34_cracker 3.40 0067  02.08.2006

@<TRIPOS>MOLECULE
ASD03910005
  48   49    0    0    0
SMALL
NO_CHARGES


@<TRIPOS>ATOM
   1 C1             0.2192    -0.2732     0.3183 C.ar    
   2 C2            -0.8111     0.2792    -0.4201 C.ar    
   3 C3            -0.6007     1.4356    -1.1489 C.ar    
   4 C4             0.6398     2.0421    -1.1416 C.ar    
   5 C5             1.6769     1.4897    -0.4009 C.ar    
   6 C6             1.4623     0.3289     0.3301 C.ar    
   7 N7             2.9352     2.1015    -0.3918 N.am    
   8 C8            -1.7265     2.0342    -1.9522 C.3     
   9 C9             3.0314     3.4455    -0.4235 C.2     
  10 C10            4.3811     4.1071    -0.3161 C.3     
  11 O11            2.0316     4.1224    -0.5384 O.2     
  12 C12            4.2133     5.6035    -0.3773 C.ar    
  13 C13            4.0239     6.3249     0.7869 C.ar    
  14 C14            3.8699     7.6967     0.7334 C.ar    
  15 C15            3.9054     8.3504    -0.4898 C.ar    
  16 C16            4.0955     7.6242    -1.6564 C.ar    
  17 C17            4.2547     6.2532    -1.5971 C.ar    
  18 O18            3.7536     9.6998    -0.5450 O.3     
  19 C19            3.9098    10.3183    -1.8237 C.3     
  20 C20            2.8784     9.7706    -2.7761 C.2     
  21 O21            2.0903     8.9362    -2.3986 O.2     
  22 O22            2.8351    10.2098    -4.0438 O.3     
  23 C23           -2.1659    -0.3806    -0.4311 C.3     
  24 C24            3.7237    11.8306    -1.6848 C.3     
  25 C25            5.3105    10.0245    -2.3647 C.3     
  26 H26            0.0505    -1.1738     0.8899 H       
  27 H27            0.8036     2.9447    -1.7115 H       
  28 H28            2.2666    -0.1029     0.9073 H       
  29 H29            3.7384     1.5584    -0.3626 H       
  30 H30           -2.2784     2.7417    -1.3333 H       
  31 H31           -1.3182     2.5521    -2.8201 H       
  32 H32           -2.3972     1.2418    -2.2844 H       
  33 H33            4.8463     3.8321     0.6305 H       
  34 H34            5.0135     3.7783    -1.1407 H       
  35 H35            3.9960     5.8156     1.7388 H       
  36 H36            3.7216     8.2598     1.6430 H       
  37 H37            4.1236     8.1308    -2.6099 H       
  38 H38            4.4028     5.6875    -2.5050 H       
  39 H39            2.1560     9.8291    -4.6173 H       
  40 H40           -2.7733     0.0232     0.3790 H       
  41 H41           -2.6568    -0.1865    -1.3847 H       
  42 H42           -2.0477    -1.4556    -0.2954 H       
  43 H43            4.5212    12.2394    -1.0643 H       
  44 H44            3.7576    12.2930    -2.6713 H       
  45 H45            2.7597    12.0368    -1.2199 H       
  46 H46            5.4924     8.9501    -2.3376 H       
  47 H47            5.3850    10.3798    -3.3925 H       
  48 H48            6.0520    10.5341    -1.7494 H       
@<TRIPOS>BOND
   1    1    2 ar
   2    1    6 ar
   3    1   26 1
   4    2    3 ar
   5    2   23 1
   6    3    4 ar
   7    3    8 1
   8    4    5 ar
   9    4   27 1
  10    5    6 ar
  11    5    7 1
  12    6   28 1
  13    7    9 am
  14    7   29 1
  15    8   30 1
  16    8   31 1
  17    8   32 1
  18    9   10 1
  19    9   11 2
  20   10   12 1
  21   10   33 1
  22   10   34 1
  23   12   13 ar
  24   12   17 ar
  25   13   14 ar
  26   13   35 1
  27   14   15 ar
  28   14   36 1
  29   15   16 ar
  30   15   18 1
  31   16   17 ar
  32   16   37 1
  33   17   38 1
  34   18   19 1
  35   19   20 1
  36   19   24 1
  37   19   25 1
  38   20   21 2
  39   20   22 1
  40   22   39 1
  41   23   40 1
  42   23   41 1
  43   23   42 1
  44   24   43 1
  45   24   44 1
  46   24   45 1
  47   25   46 1
  48   25   47 1
  49   25   48 1

#	End of record

