#	Name: ASD01901361
#	Creating user name:	WinNT
#	Creation time:	15. 06. 2019 19:53

#	Modifying user name:	WinNT
#	Modification time:	15. 06. 2019 19:53

#	Program:	/corina/corina34_cracker 3.40 0067  02.08.2006

@<TRIPOS>MOLECULE
ASD01901361
  38   41    0    0    0
SMALL
NO_CHARGES


@<TRIPOS>ATOM
   1 C1            -0.0168     1.3891     0.0097 C.ar    
   2 C2             1.1704     2.0929     0.0021 C.ar    
   3 C3             2.3775     1.4176    -0.0130 C.ar    
   4 C4             2.4021     0.0346    -0.0211 C.ar    
   5 C5             1.2208    -0.6791    -0.0142 C.ar    
   6 C6             0.0021    -0.0041     0.0020 C.ar    
   7 C7            -1.2714    -0.7662     0.0106 C.2     
   8 N8            -3.2650    -1.3687     1.1229 N.2     
   9 C9            -2.1416    -0.6939     1.1201 C.2     
  10 C10           -1.6210    -1.5436    -1.0579 C.2     
  11 N11           -2.7981    -2.2303    -1.0178 N.pl3   
  12 C12           -3.6137    -2.1380     0.0806 C.2     
  13 C13           -3.4112    -3.0712    -1.9073 C.2     
  14 C14           -4.5708    -3.4689    -1.3423 C.2     
  15 N15           -4.6781    -2.8965    -0.1396 N.2     
  16 C16           -5.5764    -4.4034    -1.9640 C.3     
  17 O17           -5.1150    -4.8101    -3.2538 O.3     
  18 C18           -5.9113    -5.6605    -3.9543 C.ar    
  19 C19           -7.1143    -6.0895    -3.4132 C.ar    
  20 C20           -5.5243    -6.0956    -5.2133 C.ar    
  21 C21           -6.3347    -6.9594    -5.9243 C.ar    
  22 C22           -7.5330    -7.3906    -5.3809 C.ar    
  23 C23           -7.9228    -6.9534    -4.1264 C.ar    
  24 F24           -8.3250    -8.2347    -6.0776 F       
  25 H25           -0.9587     1.9173     0.0260 H       
  26 H26            1.1570     3.1728     0.0077 H       
  27 H27            3.3042     1.9722    -0.0189 H       
  28 H28            3.3474    -0.4876    -0.0333 H       
  29 H29            1.2411    -1.7589    -0.0212 H       
  30 H30           -1.8803    -0.0804     1.9697 H       
  31 H31           -0.9751    -1.6125    -1.9207 H       
  32 H32           -3.0375    -3.3616    -2.8780 H       
  33 H33           -5.6986    -5.2806    -1.3286 H       
  34 H34           -6.5337    -3.8920    -2.0651 H       
  35 H35           -7.4186    -5.7486    -2.4346 H       
  36 H36           -4.5900    -5.7588    -5.6377 H       
  37 H37           -6.0336    -7.2983    -6.9045 H       
  38 H38           -8.8595    -7.2875    -3.7053 H       
@<TRIPOS>BOND
   1    1    6 ar
   2    1    2 ar
   3    1   25 1
   4    2    3 ar
   5    2   26 1
   6    3    4 ar
   7    3   27 1
   8    4    5 ar
   9    4   28 1
  10    5    6 ar
  11    5   29 1
  12    6    7 1
  13    7   10 2
  14    7    9 1
  15    8    9 2
  16    8   12 1
  17    9   30 1
  18   10   11 1
  19   10   31 1
  20   11   13 1
  21   11   12 1
  22   12   15 2
  23   13   14 2
  24   13   32 1
  25   14   15 1
  26   14   16 1
  27   16   17 1
  28   16   33 1
  29   16   34 1
  30   17   18 1
  31   18   20 ar
  32   18   19 ar
  33   19   23 ar
  34   19   35 1
  35   20   21 ar
  36   20   36 1
  37   21   22 ar
  38   21   37 1
  39   22   23 ar
  40   22   24 1
  41   23   38 1

#	End of record

