#	Name: ASD01914804
#	Creating user name:	WinNT
#	Creation time:	15. 06. 2019 20:04

#	Modifying user name:	WinNT
#	Modification time:	15. 06. 2019 20:04

#	Program:	/corina/corina34_cracker 3.40 0067  02.08.2006

@<TRIPOS>MOLECULE
ASD01914804
  31   33    0    0    0
SMALL
NO_CHARGES


@<TRIPOS>ATOM
   1 C1            -0.0168     1.3891     0.0097 C.ar    
   2 C2             0.0021    -0.0041     0.0020 C.ar    
   3 C3             1.2339    -0.6631    -0.0133 C.ar    
   4 C4             2.3879     0.1019    -0.0202 C.ar    
   5 C5             2.2854     1.4807    -0.0118 C.ar    
   6 N6             1.1077     2.0749     0.0026 N.ar    
   7 N7            -2.7994    -2.3127    -0.3452 N.am    
   8 N8            -1.4801    -1.9198    -0.6038 N.2     
   9 C9            -1.2658    -0.7755     0.0104 C.2     
  10 C10           -2.4523    -0.4126     0.6780 C.2     
  11 C11           -3.3716    -1.3743     0.4404 C.2     
  12 Br12          -2.7118     1.1426     1.7218 Br      
  13 S13           -3.5329    -3.6857    -0.9103 S.o2    
  14 O14           -4.9305    -3.4293    -0.8953 O.2     
  15 O15           -2.8248    -4.0656    -2.0823 O.2     
  16 C16           -3.2474    -4.9559     0.2771 C.ar    
  17 C17           -4.1439    -5.1494     1.3113 C.ar    
  18 C18           -3.9199    -6.1459     2.2428 C.ar    
  19 C19           -2.7997    -6.9492     2.1399 C.ar    
  20 C20           -1.9036    -6.7563     1.1051 C.ar    
  21 C21           -2.1298    -5.7626     0.1711 C.ar    
  22 H22           -0.9621     1.9114     0.0170 H       
  23 H23            1.2846    -1.7419    -0.0192 H       
  24 H24            3.3577    -0.3733    -0.0316 H       
  25 H25            3.1835     2.0806    -0.0167 H       
  26 H26           -4.3852    -1.3898     0.8129 H       
  27 H27           -5.0192    -4.5219     1.3918 H       
  28 H28           -4.6200    -6.2966     3.0513 H       
  29 H29           -2.6243    -7.7273     2.8680 H       
  30 H30           -1.0282    -7.3837     1.0248 H       
  31 H31           -1.4317    -5.6143    -0.6395 H       
@<TRIPOS>BOND
   1    1    2 ar
   2    1    6 ar
   3    1   22 1
   4    2    3 ar
   5    2    9 1
   6    3    4 ar
   7    3   23 1
   8    4    5 ar
   9    4   24 1
  10    5    6 ar
  11    5   25 1
  12    7    8 1
  13    7   11 1
  14    7   13 am
  15    8    9 2
  16    9   10 1
  17   10   11 2
  18   10   12 1
  19   11   26 1
  20   13   14 2
  21   13   15 2
  22   13   16 1
  23   16   17 ar
  24   16   21 ar
  25   17   18 ar
  26   17   27 1
  27   18   19 ar
  28   18   28 1
  29   19   20 ar
  30   19   29 1
  31   20   21 ar
  32   20   30 1
  33   21   31 1

#	End of record

