#	Name: ASD03091884
#	Creating user name:	WinNT
#	Creation time:	15. 06. 2019 20:31

#	Modifying user name:	WinNT
#	Modification time:	15. 06. 2019 20:31

#	Program:	/corina/corina34_cracker 3.40 0067  02.08.2006

@<TRIPOS>MOLECULE
ASD03091884
  38   41    0    0    0
SMALL
NO_CHARGES


@<TRIPOS>ATOM
   1 C1             0.5246     2.6234    -0.4108 C.ar    
   2 C2             0.1752     1.2888    -0.3185 C.ar    
   3 C3             1.1541     0.3215    -0.2143 C.ar    
   4 C4             2.4962     0.6802    -0.2002 C.ar    
   5 C5             2.8419     2.0344    -0.2787 C.ar    
   6 C6             1.8576     2.9917    -0.3909 C.ar    
   7 N7             3.4725    -0.3207    -0.1290 N.pl3   
   8 C8             4.9125     0.0145    -0.0847 C.3     
   9 C9             5.0722     1.2532    -0.9478 C.3     
  10 C10            4.2791     2.3761    -0.2148 C.3     
  11 C11            6.4450     1.9392    -0.9396 C.3     
  12 C12            6.0637     3.3945    -1.2176 C.2     
  13 C13            4.8188     3.6225    -0.8160 C.2     
  14 C14            5.3349     0.3091     1.3315 C.2     
  15 S15           -0.7275     3.8539    -0.5609 S.o2    
  16 O16           -0.1126     4.9797    -1.1721 O.2     
  17 O17           -1.8680     3.2018    -1.1026 O.2     
  18 N18           -1.1410     4.3222     0.9727 N.am    
  19 C19            6.5589     0.1159     1.8244 C.2     
  20 C20            6.7125     0.4599     3.1567 C.2     
  21 C21            5.6118     0.9327     3.7454 C.2     
  22 S22            4.2909     0.9671     2.5846 S.3     
  23 Br23           5.4930     1.4882     5.5491 Br      
  24 H24           -0.8661     1.0027    -0.3278 H       
  25 H25            0.8753    -0.7195    -0.1430 H       
  26 H26            2.1282     4.0347    -0.4637 H       
  27 H27            3.1996    -1.2513    -0.1079 H       
  28 H28            5.5027    -0.8065    -0.4919 H       
  29 H29            4.7179     1.0788    -1.9638 H       
  30 H30            4.5834     2.3638     0.8318 H       
  31 H31            6.9252     1.8403     0.0339 H       
  32 H32            7.0834     1.5448    -1.7302 H       
  33 H33            6.7118     4.1284    -1.6734 H       
  34 H34            4.2873     4.5578    -0.9110 H       
  35 H35           -0.7021     3.9187     1.7379 H       
  36 H36           -1.8221     4.9999     1.1059 H       
  37 H37            7.3690    -0.2793     1.2295 H       
  38 H38            7.6513     0.3535     3.6799 H       
@<TRIPOS>BOND
   1    1    2 ar
   2    1    6 ar
   3    1   15 1
   4    2    3 ar
   5    2   24 1
   6    3    4 ar
   7    3   25 1
   8    4    5 ar
   9    4    7 1
  10    5    6 ar
  11    5   10 1
  12    6   26 1
  13    7    8 1
  14    7   27 1
  15    8    9 1
  16    8   14 1
  17    8   28 1
  18    9   11 1
  19    9   10 1
  20    9   29 1
  21   10   13 1
  22   10   30 1
  23   11   12 1
  24   11   31 1
  25   11   32 1
  26   12   13 2
  27   12   33 1
  28   13   34 1
  29   14   19 2
  30   14   22 1
  31   15   16 2
  32   15   17 2
  33   15   18 am
  34   18   35 1
  35   18   36 1
  36   19   20 1
  37   19   37 1
  38   20   21 2
  39   20   38 1
  40   21   22 1
  41   21   23 1

#	End of record

