#	Name: ASD01841021
#	Creating user name:	WinNT
#	Creation time:	15. 06. 2019 19:38

#	Modifying user name:	WinNT
#	Modification time:	15. 06. 2019 19:38

#	Program:	/corina/corina34_cracker 3.40 0067  02.08.2006

@<TRIPOS>MOLECULE
ASD01841021
  32   34    0    0    0
SMALL
NO_CHARGES


@<TRIPOS>ATOM
   1 C1            -0.0167     1.3826     0.0096 C.ar    
   2 C2             0.0021    -0.0041     0.0020 C.ar    
   3 C3             1.2035    -0.6767    -0.0126 C.ar    
   4 C4             2.4050     0.0299    -0.0202 C.ar    
   5 C5             2.4046     1.4267    -0.0132 C.ar    
   6 C6             1.1593     2.0983     0.0023 C.ar    
   7 S7             4.0770    -0.5258    -0.0392 S.3     
   8 C8             4.6444     1.1381    -0.0364 C.2     
   9 N9             3.6465     1.9517    -0.0226 N.2     
  10 O10            1.1240     3.4572     0.0095 O.3     
  11 C11           -0.1656     4.0725     0.0251 C.3     
  12 C12            1.2194    -2.1836    -0.0198 C.3     
  13 N13            5.9755     1.5197    -0.0469 N.am    
  14 C14            6.3017     2.8273    -0.0435 C.2     
  15 C15            7.7108     3.2312    -0.0547 C.2     
  16 O16            5.4265     3.6728    -0.0312 O.2     
  17 C17            8.1779     4.5147    -0.0528 C.2     
  18 C18            9.5790     4.4341    -0.0657 C.2     
  19 C19            9.9019     3.1219    -0.0749 C.2     
  20 O20            8.7737     2.4003    -0.0628 O.3     
  21 H21           -0.9617     1.9054     0.0169 H       
  22 H22           -0.9259    -0.5566     0.0079 H       
  23 H23           -0.0510     5.1565     0.0294 H       
  24 H24           -0.7234     3.7697    -0.8611 H       
  25 H25           -0.7062     3.7608     0.9188 H       
  26 H26            1.2135    -2.5421    -1.0492 H       
  27 H27            2.1180    -2.5399     0.4838 H       
  28 H28            0.3383    -2.5588     0.5007 H       
  29 H29            6.6731     0.8458    -0.0567 H       
  30 H30            7.5842     5.4168    -0.0434 H       
  31 H31           10.2694     5.2647    -0.0685 H       
  32 H32           10.9048     2.7211    -0.0864 H       
@<TRIPOS>BOND
   1    1    2 ar
   2    1    6 ar
   3    1   21 1
   4    2    3 ar
   5    2   22 1
   6    3    4 ar
   7    3   12 1
   8    4    5 ar
   9    4    7 1
  10    5    6 ar
  11    5    9 1
  12    6   10 1
  13    7    8 1
  14    8    9 2
  15    8   13 1
  16   10   11 1
  17   11   23 1
  18   11   24 1
  19   11   25 1
  20   12   26 1
  21   12   27 1
  22   12   28 1
  23   13   14 am
  24   13   29 1
  25   14   15 1
  26   14   16 2
  27   15   17 2
  28   15   20 1
  29   17   18 1
  30   17   30 1
  31   18   19 2
  32   18   31 1
  33   19   20 1
  34   19   32 1

#	End of record

