#	Name: ASD01903050
#	Creating user name:	WinNT
#	Creation time:	15. 06. 2019 19:54

#	Modifying user name:	WinNT
#	Modification time:	15. 06. 2019 19:54

#	Program:	/corina/corina34_cracker 3.40 0067  02.08.2006

@<TRIPOS>MOLECULE
ASD01903050
  26   28    0    0    0
SMALL
NO_CHARGES


@<TRIPOS>ATOM
   1 C1            -0.0152     1.3098    -0.0027 C.2     
   2 N2             0.0035    -0.0044    -0.0344 N.2     
   3 C3            -1.1661    -0.6160    -0.0329 C.2     
   4 N4            -2.2397     0.1321    -0.0001 N.2     
   5 S5            -1.6834     1.7373     0.0372 S.3     
   6 C6            -1.2605    -2.0969    -0.0676 C.2     
   7 N7             1.0722     2.1659     0.0035 N.pl3   
   8 C8            -0.1795    -2.9994    -0.1042 C.2     
   9 N9            -0.6643    -4.2125    -0.1270 N.2     
  10 N10           -2.0620    -4.1336    -0.1061 N.pl3   
  11 C11           -2.4101    -2.8320    -0.0638 C.2     
  12 C12            0.8753     3.5464    -0.0928 C.ar    
  13 C13            1.7206     4.4187     0.5811 C.ar    
  14 C14            1.5233     5.7821     0.4840 C.ar    
  15 C15            0.4856     6.2792    -0.2832 C.ar    
  16 C16           -0.3580     5.4136    -0.9550 C.ar    
  17 C17           -0.1626     4.0493    -0.8671 C.ar    
  18 H18            1.9709     1.8079     0.0745 H       
  19 H19            0.8675    -2.7346    -0.1125 H       
  20 H20           -2.6742    -4.8860    -0.1161 H       
  21 H21           -3.4167    -2.4415    -0.0387 H       
  22 H22            2.5310     4.0311     1.1807 H       
  23 H23            2.1800     6.4608     1.0079 H       
  24 H24            0.3335     7.3458    -0.3575 H       
  25 H25           -1.1677     5.8051    -1.5529 H       
  26 H26           -0.8215     3.3738    -1.3923 H       
@<TRIPOS>BOND
   1    1    2 2
   2    1    7 1
   3    1    5 1
   4    2    3 1
   5    3    4 2
   6    3    6 1
   7    4    5 1
   8    6    8 1
   9    6   11 2
  10    7   12 1
  11    7   18 1
  12    8    9 2
  13    8   19 1
  14    9   10 1
  15   10   11 1
  16   10   20 1
  17   11   21 1
  18   12   13 ar
  19   12   17 ar
  20   13   14 ar
  21   13   22 1
  22   14   15 ar
  23   14   23 1
  24   15   16 ar
  25   15   24 1
  26   16   17 ar
  27   16   25 1
  28   17   26 1

#	End of record

