#	Name: ASD05430635
#	Creating user name:	WinNT
#	Creation time:	15. 06. 2019 21:00

#	Modifying user name:	WinNT
#	Modification time:	15. 06. 2019 21:00

#	Program:	/corina/corina34_cracker 3.40 0067  02.08.2006

@<TRIPOS>MOLECULE
ASD05430635
  38   40    0    0    0
SMALL
NO_CHARGES


@<TRIPOS>ATOM
   1 C1            -0.0168     1.3891     0.0097 C.ar    
   2 C2             0.0021    -0.0041     0.0020 C.ar    
   3 C3             1.2129    -0.6803    -0.0132 C.ar    
   4 C4             2.3976     0.0290    -0.0207 C.ar    
   5 C5             2.3769     1.4103    -0.0131 C.ar    
   6 C6             1.1672     2.0911     0.0021 C.ar    
   7 C7             3.6721     2.1807    -0.0208 C.3     
   8 C8             4.4906     1.8148     1.2191 C.3     
   9 C9             4.4677     1.8282    -1.2793 C.3     
  10 N10           -1.2025    -0.7221     0.0101 N.pl3   
  11 C11           -2.2474    -0.5367     0.8580 C.2     
  12 C12           -1.5503    -1.7399    -0.8400 C.2     
  13 C13           -2.7845    -2.1422    -0.4823 C.2     
  14 N14           -3.1854    -1.3921     0.5549 N.2     
  15 C15           -3.5799    -3.2422    -1.1370 C.3     
  16 C16            0.4629     3.4218     0.0160 C.3     
  17 C17           -0.8467     2.6452     0.0190 C.3     
  18 C18           -3.9969    -4.2678    -0.0810 C.3     
  19 H19            1.2292    -1.7602    -0.0188 H       
  20 H20            3.3410    -0.4965    -0.0321 H       
  21 H21            3.4591     3.2496    -0.0131 H       
  22 H22            4.7036     0.7459     1.2114 H       
  23 H23            5.4274     2.3720     1.2135 H       
  24 H24            3.9238     2.0659     2.1156 H       
  25 H25            4.6807     0.7593    -1.2870 H       
  26 H26            3.8846     2.0889    -2.1626 H       
  27 H27            5.4045     2.3855    -1.2849 H       
  28 H28           -2.2939     0.1955     1.6505 H       
  29 H29           -0.9498    -2.1416    -1.6428 H       
  30 H30           -4.4694    -2.8190    -1.6037 H       
  31 H31           -2.9685    -3.7302    -1.8960 H       
  32 H32            0.6348     3.9969     0.9259 H       
  33 H33            0.6174     4.0067    -0.8907 H       
  34 H34           -1.4397     2.7865    -0.8845 H       
  35 H35           -1.4280     2.7738     0.9321 H       
  36 H36           -4.5722    -5.0634    -0.5546 H       
  37 H37           -3.1075    -4.6910     0.3857 H       
  38 H38           -4.6083    -3.7798     0.6780 H       
@<TRIPOS>BOND
   1    1    2 ar
   2    1    6 ar
   3    1   17 1
   4    2    3 ar
   5    2   10 1
   6    3    4 ar
   7    3   19 1
   8    4    5 ar
   9    4   20 1
  10    5    6 ar
  11    5    7 1
  12    6   16 1
  13    7    8 1
  14    7    9 1
  15    7   21 1
  16    8   22 1
  17    8   23 1
  18    8   24 1
  19    9   25 1
  20    9   26 1
  21    9   27 1
  22   10   11 1
  23   10   12 1
  24   11   14 2
  25   11   28 1
  26   12   13 2
  27   12   29 1
  28   13   14 1
  29   13   15 1
  30   15   18 1
  31   15   30 1
  32   15   31 1
  33   16   17 1
  34   16   32 1
  35   16   33 1
  36   17   34 1
  37   17   35 1
  38   18   36 1
  39   18   37 1
  40   18   38 1

#	End of record

