#	Name: ASD07930053
#	Creating user name:	WinNT
#	Creation time:	15. 06. 2019 21:11

#	Modifying user name:	WinNT
#	Modification time:	15. 06. 2019 21:11

#	Program:	/corina/corina34_cracker 3.40 0067  02.08.2006

@<TRIPOS>MOLECULE
ASD07930053
  46   48    0    0    0
SMALL
NO_CHARGES


@<TRIPOS>ATOM
   1 C1            -0.0167     1.3792     0.0096 C.ar    
   2 C2             0.0021    -0.0041     0.0020 C.ar    
   3 C3             1.2049    -0.6803    -0.0131 C.ar    
   4 C4             2.4022     0.0329    -0.0208 C.ar    
   5 C5             2.3774     1.4259    -0.0131 C.ar    
   6 C6             1.1685     2.0920     0.0021 C.ar    
   7 C7             6.0988    -0.6497    -0.0585 C.ar    
   8 S8            -1.5539    -0.9287     0.0126 Du      
   9 F9            -2.1240     0.0439     1.1620 F       
  10 F10           -0.9838    -1.9012    -1.1368 F       
  11 F11           -0.9611    -1.9134     1.1399 F       
  12 F12           -2.9380    -1.7511     0.0220 F       
  13 F13           -2.1467     0.0561    -1.1148 F       
  14 C14            7.3937     0.1210    -0.0673 C.3     
  15 C15            8.2186    -0.2393     1.1719 C.3     
  16 C16            7.6311     0.4097     2.3934 C.2     
  17 N17            6.8443     1.4937     2.3287 N.am    
  18 C18            6.4771     2.0401     1.1109 C.2     
  19 N19            7.1126     1.5674    -0.0248 N.pl3   
  20 C20            8.1867    -0.2155    -1.3317 C.3     
  21 N21            5.5656     2.9665     1.0361 N.2     
  22 O22            7.8780    -0.0661     3.4809 O.2     
  23 C23            6.3647     2.1100     3.5682 C.3     
  24 C24            4.8957     0.0252    -0.0442 C.ar    
  25 C25            3.6986    -0.6886    -0.0366 C.ar    
  26 C26            3.7228    -2.0817    -0.0434 C.ar    
  27 C27            4.9308    -2.7487    -0.0576 C.ar    
  28 C28            6.1182    -2.0353    -0.0705 C.ar    
  29 F29            7.2986    -2.6922    -0.0848 F       
  30 H30           -0.9603     1.9044     0.0169 H       
  31 H31            1.2184    -1.7602    -0.0187 H       
  32 H32            3.3023     1.9835    -0.0189 H       
  33 H33            1.1480     3.1718     0.0081 H       
  34 H34            8.2195    -1.3213     1.3030 H       
  35 H35            9.2433     0.1068     1.0367 H       
  36 H36            7.3602     2.1572    -0.7540 H       
  37 H37            7.6007     0.0535    -2.2105 H       
  38 H38            9.1221     0.3440    -1.3336 H       
  39 H39            8.4023    -1.2838    -1.3518 H       
  40 H40            5.1309     3.2855     1.8425 H       
  41 H41            7.0767     2.8672     3.8966 H       
  42 H42            5.3951     2.5755     3.3910 H       
  43 H43            6.2655     1.3459     4.3392 H       
  44 H44            4.8814     1.1050    -0.0387 H       
  45 H45            2.7976    -2.6387    -0.0372 H       
  46 H46            4.9505    -3.8285    -0.0626 H       
@<TRIPOS>BOND
   1    1    2 ar
   2    1    6 ar
   3    1   30 1
   4    2    3 ar
   5    2    8 1
   6    3    4 ar
   7    3   31 1
   8    4    5 ar
   9    4   25 1
  10    5    6 ar
  11    5   32 1
  12    6   33 1
  13    7   14 1
  14    7   24 ar
  15    7   28 ar
  16    8    9 1
  17    8   10 1
  18    8   11 1
  19    8   12 1
  20    8   13 1
  21   14   15 1
  22   14   20 1
  23   14   19 1
  24   15   16 1
  25   15   34 1
  26   15   35 1
  27   16   17 am
  28   16   22 2
  29   17   18 1
  30   17   23 1
  31   18   19 1
  32   18   21 2
  33   19   36 1
  34   20   37 1
  35   20   38 1
  36   20   39 1
  37   21   40 1
  38   23   41 1
  39   23   42 1
  40   23   43 1
  41   24   25 ar
  42   24   44 1
  43   25   26 ar
  44   26   27 ar
  45   26   45 1
  46   27   28 ar
  47   27   46 1
  48   28   29 1

#	End of record

