#	Name: ASD05313004
#	Creating user name:	WinNT
#	Creation time:	15. 06. 2019 20:58

#	Modifying user name:	WinNT
#	Modification time:	15. 06. 2019 20:58

#	Program:	/corina/corina34_cracker 3.40 0067  02.08.2006

@<TRIPOS>MOLECULE
ASD05313004
  52   55    0    0    0
SMALL
NO_CHARGES


@<TRIPOS>ATOM
   1 C1             7.1603     1.9848     0.6489 C.ar    
   2 C2             7.2153     0.9791     1.5947 C.ar    
   3 C3             6.0524     0.3539     2.0061 C.ar    
   4 C4             4.8283     0.7336     1.4724 C.ar    
   5 C5             4.7696     1.7488     0.5222 C.ar    
   6 C6             5.9453     2.3692     0.1136 C.ar    
   7 S7             3.3635    -0.0827     2.0079 S.3     
   8 C8             2.1905     0.3210     0.7589 C.ar    
   9 C9             2.4154     1.3833    -0.1109 C.ar    
  10 N10            3.5627     2.1692    -0.0314 N.pl3   
  11 C11            1.0298    -0.4331     0.6465 C.ar    
  12 C12            0.0964    -0.1329    -0.3281 C.ar    
  13 C13            0.3180     0.9207    -1.1946 C.ar    
  14 C14            1.4702     1.6760    -1.0889 C.ar    
  15 C15            3.4950     3.5315    -0.5658 C.3     
  16 C16            3.8930     3.5202    -2.0431 C.3     
  17 C17            3.8223     4.9430    -2.6013 C.3     
  18 N18            4.2045     4.9321    -4.0197 N.3     
  19 C19            3.9234     6.2292    -4.6508 C.3     
  20 C20            4.4076     6.2027    -6.1025 C.3     
  21 N21            3.7326     5.1131    -6.8214 N.3     
  22 C22            4.0136     3.8161    -6.1903 C.3     
  23 C23            3.5295     3.8426    -4.7386 C.3     
  24 C24            4.1147     5.1022    -8.2398 C.3     
  25 C25           -0.6996     1.2467    -2.2573 C.3     
  26 F26           -1.7710     0.3516    -2.1672 F       
  27 F27           -1.1659     2.5525    -2.0716 F       
  28 F28           -0.1064     1.1384    -3.5198 F       
  29 H29            8.0685     2.4748     0.3303 H       
  30 H30            8.1657     0.6813     2.0121 H       
  31 H31            6.0967    -0.4327     2.7448 H       
  32 H32            5.9087     3.1559    -0.6255 H       
  33 H33            0.8558    -1.2572     1.3225 H       
  34 H34           -0.8052    -0.7214    -0.4124 H       
  35 H35            1.6382     2.4977    -1.7694 H       
  36 H36            2.4779     3.9107    -0.4665 H       
  37 H37            4.1781     4.1741    -0.0104 H       
  38 H38            4.9101     3.1411    -2.1425 H       
  39 H39            3.2098     2.8777    -2.5986 H       
  40 H40            2.8052     5.3222    -2.5019 H       
  41 H41            4.5055     5.5856    -2.0458 H       
  42 H42            2.8504     6.4194    -4.6287 H       
  43 H43            4.4442     7.0181    -4.1081 H       
  44 H44            4.1740     7.1537    -6.5811 H       
  45 H45            5.4851     6.0395    -6.1236 H       
  46 H46            3.4928     3.0272    -6.7330 H       
  47 H47            5.0866     3.6258    -6.2124 H       
  48 H48            3.7631     2.8915    -4.2600 H       
  49 H49            2.4520     4.0057    -4.7175 H       
  50 H50            5.1923     4.9620    -8.3247 H       
  51 H51            3.6010     4.2864    -8.7483 H       
  52 H52            3.8344     6.0503    -8.6989 H       
@<TRIPOS>BOND
   1    1    2 ar
   2    1    6 ar
   3    1   29 1
   4    2    3 ar
   5    2   30 1
   6    3    4 ar
   7    3   31 1
   8    4    5 ar
   9    4    7 1
  10    5    6 ar
  11    5   10 1
  12    6   32 1
  13    7    8 1
  14    8    9 ar
  15    8   11 ar
  16    9   10 1
  17    9   14 ar
  18   10   15 1
  19   11   12 ar
  20   11   33 1
  21   12   13 ar
  22   12   34 1
  23   13   14 ar
  24   13   25 1
  25   14   35 1
  26   15   16 1
  27   15   36 1
  28   15   37 1
  29   16   17 1
  30   16   38 1
  31   16   39 1
  32   17   18 1
  33   17   40 1
  34   17   41 1
  35   18   19 1
  36   18   23 1
  37   19   20 1
  38   19   42 1
  39   19   43 1
  40   20   21 1
  41   20   44 1
  42   20   45 1
  43   21   22 1
  44   21   24 1
  45   22   23 1
  46   22   46 1
  47   22   47 1
  48   23   48 1
  49   23   49 1
  50   24   50 1
  51   24   51 1
  52   24   52 1
  53   25   26 1
  54   25   27 1
  55   25   28 1

#	End of record

