#	Name: ASD02198438
#	Creating user name:	WinNT
#	Creation time:	15. 06. 2019 20:19

#	Modifying user name:	WinNT
#	Modification time:	15. 06. 2019 20:19

#	Program:	/corina/corina34_cracker 3.40 0067  02.08.2006

@<TRIPOS>MOLECULE
ASD02198438
  43   46    0    0    0
SMALL
NO_CHARGES


@<TRIPOS>ATOM
   1 C1            -0.1457     2.0005     0.5698 C.ar    
   2 S2            -0.1373     0.2404     0.6514 S.o2    
   3 N3            -0.5054    -0.1798     2.2104 N.am    
   4 C4            -1.7229     0.2084     2.7681 C.ar    
   5 C5            -1.8004     0.5585     4.1342 C.ar    
   6 C6            -3.0500     0.9496     4.6739 C.ar    
   7 C7            -4.1856     0.9828     3.8488 C.ar    
   8 C8            -4.0810     0.6394     2.5350 C.ar    
   9 C9            -2.8587     0.2591     1.9894 C.ar    
  10 N10           -0.7184     0.5249     4.9164 N.ar    
  11 C11           -0.7841     0.8483     6.1851 C.ar    
  12 C12           -1.9812     1.2415     6.7799 C.ar    
  13 C13           -3.1251     1.2983     6.0361 C.ar    
  14 O14           -1.2229    -0.2037    -0.1508 O.2     
  15 O15            1.2070    -0.1650     0.4333 O.2     
  16 C16            1.0181     2.7070     0.8185 C.ar    
  17 C17            1.0188     4.0847     0.7568 C.ar    
  18 C18           -0.1590     4.7671     0.4420 C.ar    
  19 C19           -1.3300     4.0473     0.1917 C.ar    
  20 C20           -1.3147     2.6696     0.2518 C.ar    
  21 C21           -0.1663     6.2425     0.3745 C.2     
  22 O22           -0.9810     6.8148    -0.3220 O.2     
  23 C23            0.8192     7.0241     1.1556 C.ar    
  24 C24            1.1044     8.3541     0.8281 C.ar    
  25 C25            2.0304     9.0460     1.5841 C.ar    
  26 N26            2.6412     8.4697     2.6003 N.ar    
  27 C27            2.4023     7.2194     2.9428 C.ar    
  28 C28            1.4871     6.4553     2.2455 C.ar    
  29 H29            0.1260    -0.6961     2.7355 H       
  30 H30           -5.1409     1.2799     4.2556 H       
  31 H31           -4.9588     0.6669     1.9064 H       
  32 H32           -2.8012    -0.0084     0.9446 H       
  33 H33            0.1131     0.8086     6.7851 H       
  34 H34           -2.0043     1.5015     7.8279 H       
  35 H35           -4.0616     1.6012     6.4806 H       
  36 H36            1.9278     2.1781     1.0617 H       
  37 H37            1.9275     4.6348     0.9518 H       
  38 H38           -2.2441     4.5684    -0.0519 H       
  39 H39           -2.2191     2.1118     0.0582 H       
  40 H40            0.6083     8.8324    -0.0035 H       
  41 H41            2.2573    10.0731     1.3393 H       
  42 H42            2.9262     6.7879     3.7829 H       
  43 H43            1.2960     5.4316     2.5320 H       
@<TRIPOS>BOND
   1    1    2 1
   2    1   16 ar
   3    1   20 ar
   4    2    3 am
   5    2   14 2
   6    2   15 2
   7    3    4 1
   8    3   29 1
   9    4    5 ar
  10    4    9 ar
  11    5    6 ar
  12    5   10 ar
  13    6    7 ar
  14    6   13 ar
  15    7    8 ar
  16    7   30 1
  17    8    9 ar
  18    8   31 1
  19    9   32 1
  20   10   11 ar
  21   11   12 ar
  22   11   33 1
  23   12   13 ar
  24   12   34 1
  25   13   35 1
  26   16   17 ar
  27   16   36 1
  28   17   18 ar
  29   17   37 1
  30   18   19 ar
  31   18   21 1
  32   19   20 ar
  33   19   38 1
  34   20   39 1
  35   21   22 2
  36   21   23 1
  37   23   24 ar
  38   23   28 ar
  39   24   25 ar
  40   24   40 1
  41   25   26 ar
  42   25   41 1
  43   26   27 ar
  44   27   28 ar
  45   27   42 1
  46   28   43 1

#	End of record

