#	Name: ASD01900963
#	Creating user name:	WinNT
#	Creation time:	15. 06. 2019 19:52

#	Modifying user name:	WinNT
#	Modification time:	15. 06. 2019 19:52

#	Program:	/corina/corina34_cracker 3.40 0067  02.08.2006

@<TRIPOS>MOLECULE
ASD01900963
  52   56    0    0    0
SMALL
NO_CHARGES


@<TRIPOS>ATOM
   1 C1            -0.0573     1.5118    -0.6991 C.ar    
   2 C2            -0.1772     0.1635    -0.4428 C.ar    
   3 C3             0.7771    -0.4961     0.3213 C.ar    
   4 C4             1.8573     0.1951     0.8426 C.ar    
   5 C5             1.9868     1.5510     0.5982 C.ar    
   6 C6             1.0314     2.2190    -0.1879 C.ar    
   7 N7             3.0487     2.2830     1.1239 N.pl3   
   8 C8             3.4642     3.5000     0.4226 C.3     
   9 N9             2.3410     4.2769    -0.0964 N.am    
  10 C10            1.1945     3.6583    -0.4520 C.2     
  11 C11            2.4531     5.6670    -0.2242 C.ar    
  12 C12            2.0523     6.4948     0.8162 C.ar    
  13 C13            2.1635     7.8653     0.6897 C.ar    
  14 C14            2.6756     8.4153    -0.4764 C.ar    
  15 C15            3.0758     7.5890    -1.5164 C.ar    
  16 C16            2.9704     6.2180    -1.3891 C.ar    
  17 O17            0.3015     4.2866    -0.9880 O.2     
  18 O18            2.7848     9.7649    -0.6003 O.3     
  19 C19            4.4831     4.3385     1.2067 C.3     
  20 F20            0.6499    -1.8201     0.5577 F       
  21 C21            3.3205    10.2625    -1.8281 C.3     
  22 F22            2.5091     9.8519    -2.8912 F       
  23 F23            3.3624    11.6602    -1.7862 F       
  24 F24            4.6145     9.7624    -2.0089 F       
  25 N25            5.1816     4.5128    -0.0868 N.3     
  26 C26            4.5791     3.2638    -0.6052 C.3     
  27 C27            6.6344     4.3685     0.0758 C.3     
  28 C28            7.3004     4.4388    -1.2743 C.ar    
  29 C29            7.7853     3.2878    -1.8667 C.ar    
  30 C30            8.3967     3.3522    -3.1047 C.ar    
  31 C31            8.5235     4.5677    -3.7513 C.ar    
  32 C32            8.0387     5.7190    -3.1602 C.ar    
  33 C33            7.4216     5.6543    -1.9234 C.ar    
  34 Cl34           6.8059     7.0990    -1.1836 Cl      
  35 H35           -0.8006     2.0183    -1.2969 H       
  36 H36           -1.0194    -0.3846    -0.8386 H       
  37 H37            2.5957    -0.3217     1.4377 H       
  38 H38            3.5005     1.9949     1.9324 H       
  39 H39            1.6533     6.0667     1.7239 H       
  40 H40            1.8515     8.5092     1.4986 H       
  41 H41            3.4740     8.0179    -2.4240 H       
  42 H42            3.2862     5.5747    -2.1970 H       
  43 H43            4.0722     5.2630     1.6124 H       
  44 H44            5.0519     3.7664     1.9397 H       
  45 H45            5.1763     2.3734    -0.4089 H       
  46 H46            4.2447     3.3338    -1.6403 H       
  47 H47            7.0108     5.1720     0.7088 H       
  48 H48            6.8544     3.4070     0.5398 H       
  49 H49            7.6868     2.3381    -1.3619 H       
  50 H50            8.7757     2.4527    -3.5670 H       
  51 H51            9.0019     4.6175    -4.7183 H       
  52 H52            8.1382     6.6684    -3.6652 H       
@<TRIPOS>BOND
   1    1    2 ar
   2    1    6 ar
   3    1   35 1
   4    2    3 ar
   5    2   36 1
   6    3    4 ar
   7    3   20 1
   8    4    5 ar
   9    4   37 1
  10    5    7 1
  11    5    6 ar
  12    6   10 1
  13    7    8 1
  14    7   38 1
  15    8    9 1
  16    8   19 1
  17    8   26 1
  18    9   10 am
  19    9   11 1
  20   10   17 2
  21   11   12 ar
  22   11   16 ar
  23   12   13 ar
  24   12   39 1
  25   13   14 ar
  26   13   40 1
  27   14   15 ar
  28   14   18 1
  29   15   16 ar
  30   15   41 1
  31   16   42 1
  32   18   21 1
  33   19   25 1
  34   19   43 1
  35   19   44 1
  36   21   22 1
  37   21   23 1
  38   21   24 1
  39   25   27 1
  40   25   26 1
  41   26   45 1
  42   26   46 1
  43   27   28 1
  44   27   47 1
  45   27   48 1
  46   28   29 ar
  47   28   33 ar
  48   29   30 ar
  49   29   49 1
  50   30   31 ar
  51   30   50 1
  52   31   32 ar
  53   31   51 1
  54   32   33 ar
  55   32   52 1
  56   33   34 1

#	End of record

