#	Name: ASD01310047
#	Creating user name:	WinNT
#	Creation time:	15. 06. 2019 19:15

#	Modifying user name:	WinNT
#	Modification time:	15. 06. 2019 19:15

#	Program:	/corina/corina34_cracker 3.40 0067  02.08.2006

@<TRIPOS>MOLECULE
ASD01310047
  44   48    0    0    0
SMALL
NO_CHARGES


@<TRIPOS>ATOM
   1 C1            -0.0182     1.4904     0.0102 C.3     
   2 C2             0.0021    -0.0041     0.0020 C.ar    
   3 C3             0.0411    -0.7252    -1.1843 C.ar    
   4 C4            -0.1988     1.2562    -2.4797 C.2     
   5 C5            -0.0157    -0.7085     1.1967 C.ar    
   6 C6             0.0153    -2.0902     1.1656 C.ar    
   7 N7             0.0632    -2.7430     0.0209 N.ar    
   8 C8             0.0765    -2.1120    -1.1369 C.ar    
   9 N9             1.2873     3.4068    -0.5771 N.am    
  10 C10            1.4184     2.0554    -0.0004 C.3     
  11 C11           -0.6128     2.0689    -1.2871 C.3     
  12 C12            0.0629     3.4561    -1.3895 C.3     
  13 N13            0.0405    -0.0594    -2.4101 N.am    
  14 O14           -0.0764     1.8140    -3.5497 O.2     
  15 S15            2.3443     4.6608    -0.3474 S.o2    
  16 O16            1.6082     5.8538    -0.5805 O.2     
  17 O17            3.0257     4.3933     0.8705 O.2     
  18 C18            3.5534     4.5645    -1.6255 C.ar    
  19 C19            4.7036     3.8222    -1.4324 C.ar    
  20 C20            3.3472     5.2269    -2.8212 C.ar    
  21 C21            5.4577     4.4092    -3.6310 C.ar    
  22 C22            5.6550     3.7435    -2.4321 C.ar    
  23 C23            4.2963     5.1522    -3.8278 C.ar    
  24 O24            4.3354     5.7001    -5.0774 O.3     
  25 C25            5.7130     5.6212    -5.4889 C.3     
  26 O26            6.2241     4.4910    -4.7576 O.3     
  27 H27           -0.5616     1.8553     0.8818 H       
  28 H28           -1.6980     2.1480    -1.2229 H       
  29 C29            0.3059    -0.8107    -3.6395 C.3     
  30 H30           -0.0530    -0.1839     2.1400 H       
  31 H31            0.0004    -2.6435     2.0930 H       
  32 H32            0.1153    -2.6786    -2.0555 H       
  33 H33            1.8114     2.1125     1.0147 H       
  34 H34            2.0645     1.4377    -0.6242 H       
  35 H35           -0.6073     4.2242    -1.0036 H       
  36 H36            0.3155     3.6695    -2.4282 H       
  37 H37            4.8592     3.3028    -0.4983 H       
  38 H38            2.4458     5.8025    -2.9710 H       
  39 H39            6.5528     3.1631    -2.2784 H       
  40 H40            5.7826     5.4460    -6.5624 H       
  41 H41            6.2479     6.5298    -5.2126 H       
  42 H42           -0.6334    -1.1854    -4.0463 H       
  43 H43            0.7826    -0.1564    -4.3694 H       
  44 H44            0.9659    -1.6492    -3.4176 H       
@<TRIPOS>BOND
   1    1    2 1
   2    1   10 1
   3    1   11 1
   4    1   27 1
   5    2    3 ar
   6    2    5 ar
   7    3   13 1
   8    3    8 ar
   9    4   11 1
  10    4   14 2
  11    4   13 am
  12    5    6 ar
  13    5   30 1
  14    6    7 ar
  15    6   31 1
  16    7    8 ar
  17    8   32 1
  18    9   10 1
  19    9   12 1
  20    9   15 am
  21   10   33 1
  22   10   34 1
  23   11   12 1
  24   11   28 1
  25   12   35 1
  26   12   36 1
  27   13   29 1
  28   15   16 2
  29   15   17 2
  30   15   18 1
  31   18   20 ar
  32   18   19 ar
  33   19   22 ar
  34   19   37 1
  35   20   23 ar
  36   20   38 1
  37   21   22 ar
  38   21   26 1
  39   21   23 ar
  40   22   39 1
  41   23   24 1
  42   24   25 1
  43   25   26 1
  44   25   40 1
  45   25   41 1
  46   29   42 1
  47   29   43 1
  48   29   44 1

#	End of record

