#	Name: ASD00844305
#	Creating user name:	WinNT
#	Creation time:	15. 06. 2019 18:49

#	Modifying user name:	WinNT
#	Modification time:	15. 06. 2019 18:49

#	Program:	/corina/corina34_cracker 3.40 0067  02.08.2006

@<TRIPOS>MOLECULE
ASD00844305
  94   99    0    0    0
SMALL
NO_CHARGES


@<TRIPOS>ATOM
   1 F1            -0.0990    -3.1530     4.7116 F       
   2 C2            -0.0149     1.3803     0.0255 C.ar    
   3 C3             0.0029    -0.0066     0.0108 C.ar    
   4 C4             1.2146    -0.6824    -0.0068 C.ar    
   5 C5             2.3997     0.0270    -0.0096 C.ar    
   6 C6             2.3793     1.4096     0.0055 C.ar    
   7 C7             1.1734     2.0853     0.0225 C.ar    
   8 C8             1.2376    -2.1892    -0.0222 C.3     
   9 C9             0.4952    -2.7185    -1.2307 C.2     
  10 N10            2.6178    -2.6802    -0.0121 N.am    
  11 C11            3.4634    -2.3342    -1.0029 C.2     
  12 N12            4.7590    -2.7005    -0.9417 N.am    
  13 O13            3.0575    -1.6917    -1.9520 O.2     
  14 C14            5.6727    -2.4339    -2.0631 C.3     
  15 C15            6.9193    -1.7288    -1.5183 C.3     
  16 N16            7.4922    -2.5277    -0.4268 N.3     
  17 C17            6.5583    -2.6350     0.7020 C.3     
  18 C18            5.2982    -3.3718     0.2507 C.3     
  19 C19            8.7825    -1.9764     0.0081 C.3     
  20 C20            9.2885    -2.7566     1.2246 C.3     
  21 C21           10.6607    -2.2177     1.6354 C.3     
  22 N22           11.5993    -2.3600     0.5151 N.3     
  23 C23           11.1586    -1.5811    -0.6491 C.3     
  24 C24            9.8013    -2.1009    -1.1282 C.3     
  25 C25           12.9604    -1.9811     0.9173 C.3     
  26 O26            0.7753    -2.5169    -2.3935 O.2     
  27 N27           -0.5318    -3.4543    -0.7733 N.am    
  28 C28            0.4671    -2.7426     1.1544 C.ar    
  29 C29           -0.5768    -3.4888     0.6220 C.ar    
  30 C30            0.6300    -2.6282     2.5166 C.ar    
  31 C31           -0.2547    -3.2628     3.3741 C.ar    
  32 C32           -1.2998    -4.0099     2.8548 C.ar    
  33 C33           -1.4631    -4.1245     1.4885 C.ar    
  34 Cl34          -2.4091    -4.8056     3.9271 Cl      
  35 C35           -0.9833    -5.8436    -2.0624 C.ar    
  36 C36            0.1959    -5.9979    -2.7772 C.ar    
  37 C37           -1.6561    -6.9541    -1.5891 C.ar    
  38 C38           -1.1566    -8.2202    -1.8259 C.ar    
  39 C39            0.0226    -8.3798    -2.5403 C.ar    
  40 C40            0.6991    -7.2676    -3.0165 C.ar    
  41 O41            0.5133    -9.6255    -2.7733 O.3     
  42 O42            0.8568    -4.9055    -3.2427 O.3     
  43 C43           -0.2361   -10.7256    -2.2536 C.3     
  44 C44            2.0643    -5.1392    -3.9704 C.3     
  45 C45            2.6616    -3.8011    -4.4104 C.3     
  46 S46           -1.6196    -4.2302    -1.7516 S.o2    
  47 O47           -2.7995    -4.4060    -0.9795 O.2     
  48 O48           -1.6002    -3.5446    -2.9961 O.2     
  49 O49           -1.1645    -0.7024     0.0141 O.3     
  50 C50           -2.3735     0.0592     0.0330 C.3     
  51 C51           -3.5738    -0.8896     0.0339 C.3     
  52 F52           -3.5411    -1.6841    -1.1171 F       
  53 F53           -3.5205    -1.7080     1.1673 F       
  54 H54           -0.9568     1.9086     0.0346 H       
  55 H55            3.3431    -0.4986    -0.0233 H       
  56 H56            3.3071     1.9625     0.0039 H       
  57 H57            1.1601     3.1652     0.0343 H       
  58 H58            2.9231    -3.2544     0.7076 H       
  59 H59            5.9600    -3.3746    -2.5329 H       
  60 H60            5.1789    -1.7926    -2.7932 H       
  61 H61            7.6547    -1.6222    -2.3158 H       
  62 H62            6.6446    -0.7432    -1.1422 H       
  63 H63            7.0318    -3.1857     1.5148 H       
  64 H64            6.2886    -1.6369     1.0472 H       
  65 H65            4.5572    -3.3533     1.0498 H       
  66 H66            5.5467    -4.4035     0.0017 H       
  67 H67            8.6589    -0.9266     0.2743 H       
  68 H68            8.5880    -2.6366     2.0510 H       
  69 H69            9.3738    -3.8129     0.9696 H       
  70 H70           10.5720    -1.1650     1.9035 H       
  71 H71           11.0302    -2.7807     2.4925 H       
  72 H72           11.0676    -0.5313    -0.3703 H       
  73 H73           11.8897    -1.6816    -1.4513 H       
  74 H74            9.8946    -3.1469    -1.4202 H       
  75 H75            9.4671    -1.5124    -1.9826 H       
  76 H76           13.2903    -2.6239     1.7335 H       
  77 H77           13.6352    -2.0958     0.0690 H       
  78 H78           12.9657    -0.9425     1.2480 H       
  79 H79            1.4463    -2.0450     2.9165 H       
  80 H80           -2.2799    -4.7085     1.0907 H       
  81 H81           -2.5738    -6.8319    -1.0329 H       
  82 H82           -1.6838    -9.0864    -1.4544 H       
  83 H83            1.6166    -7.3897    -3.5729 H       
  84 H84           -0.3074   -10.6369    -1.1696 H       
  85 H85           -1.2370   -10.7197    -2.6852 H       
  86 H86            0.2644   -11.6595    -2.5096 H       
  87 H87            2.7768    -5.6632    -3.3334 H       
  88 H88            1.8472    -5.7466    -4.8490 H       
  89 H89            3.5825    -3.9793    -4.9655 H       
  90 H90            1.9490    -3.2770    -5.0474 H       
  91 H91            2.8786    -3.1936    -3.5318 H       
  92 H92           -2.3990     0.6782     0.9297 H       
  93 H93           -2.4151     0.6968    -0.8500 H       
  94 H94           -4.4961    -0.3087     0.0483 H       
@<TRIPOS>BOND
   1    1   31 1
   2    2    3 ar
   3    2    7 ar
   4    2   54 1
   5    3    4 ar
   6    3   49 1
   7    4    5 ar
   8    4    8 1
   9    5    6 ar
  10    5   55 1
  11    6    7 ar
  12    6   56 1
  13    7   57 1
  14    8    9 1
  15    8   10 1
  16    8   28 1
  17    9   26 2
  18    9   27 am
  19   10   11 am
  20   10   58 1
  21   11   12 am
  22   11   13 2
  23   12   14 1
  24   12   18 1
  25   14   15 1
  26   14   59 1
  27   14   60 1
  28   15   16 1
  29   15   61 1
  30   15   62 1
  31   16   17 1
  32   16   19 1
  33   17   18 1
  34   17   63 1
  35   17   64 1
  36   18   65 1
  37   18   66 1
  38   19   20 1
  39   19   24 1
  40   19   67 1
  41   20   21 1
  42   20   68 1
  43   20   69 1
  44   21   22 1
  45   21   70 1
  46   21   71 1
  47   22   23 1
  48   22   25 1
  49   23   24 1
  50   23   72 1
  51   23   73 1
  52   24   74 1
  53   24   75 1
  54   25   76 1
  55   25   77 1
  56   25   78 1
  57   27   46 am
  58   27   29 1
  59   28   29 ar
  60   28   30 ar
  61   29   33 ar
  62   30   31 ar
  63   30   79 1
  64   31   32 ar
  65   32   33 ar
  66   32   34 1
  67   33   80 1
  68   35   36 ar
  69   35   37 ar
  70   35   46 1
  71   36   42 1
  72   36   40 ar
  73   37   38 ar
  74   37   81 1
  75   38   39 ar
  76   38   82 1
  77   39   40 ar
  78   39   41 1
  79   40   83 1
  80   41   43 1
  81   42   44 1
  82   43   84 1
  83   43   85 1
  84   43   86 1
  85   44   45 1
  86   44   87 1
  87   44   88 1
  88   45   89 1
  89   45   90 1
  90   45   91 1
  91   46   47 2
  92   46   48 2
  93   49   50 1
  94   50   51 1
  95   50   92 1
  96   50   93 1
  97   51   52 1
  98   51   53 1
  99   51   94 1

#	End of record

