#	Name: ASD07931742
#	Creating user name:	WinNT
#	Creation time:	15. 06. 2019 21:13

#	Modifying user name:	WinNT
#	Modification time:	15. 06. 2019 21:13

#	Program:	/corina/corina34_cracker 3.40 0067  02.08.2006

@<TRIPOS>MOLECULE
ASD07931742
  60   64    0    0    0
SMALL
NO_CHARGES


@<TRIPOS>ATOM
   1 C1             1.9160    -1.9258    -1.2744 C.2     
   2 C2             0.8318    -1.1096    -1.4461 C.2     
   3 C3             1.0398     0.3396    -1.4990 C.2     
   4 N4             2.2856     0.8304    -1.3799 N.am    
   5 C5             3.3605    -0.0118    -1.2057 C.2     
   6 C6             3.1918    -1.3612    -1.1535 C.2     
   7 C7             2.5303     2.2780    -1.4347 C.3     
   8 C8             3.5902     2.6219    -0.3776 C.3     
   9 N9             4.8168     1.8731    -0.6860 N.am    
  10 C10            4.7103     0.5798    -1.0743 C.2     
  11 C11            6.1298     2.5135    -0.5756 C.3     
  12 O12            0.0928     1.0927    -1.6498 O.2     
  13 N13           -0.4519    -1.6487    -1.5694 N.pl3   
  14 C14           -1.1419    -2.3399    -0.6066 C.2     
  15 C15           -1.2545    -1.5822    -2.6641 C.2     
  16 N16           -2.3727    -2.2002    -2.3975 N.2     
  17 C17           -2.3306    -2.6744    -1.1433 C.2     
  18 C18           -3.4248    -3.4480    -0.4540 C.3     
  19 O19            5.7033    -0.0813    -1.3094 O.2     
  20 C20            6.4026     2.8686     0.8874 C.3     
  21 C21            6.2496     1.6184     1.7818 C.3     
  22 C22            5.6057     2.1602     3.0776 C.3     
  23 C23            5.4458     3.6737     2.8128 C.3     
  24 O24            5.4068     3.7946     1.3741 O.3     
  25 C25            4.1609     4.1791     3.4167 C.ar    
  26 C26            4.1299     4.5793     4.7398 C.ar    
  27 C27            3.0155     4.2474     2.6459 C.ar    
  28 C28            1.8366     4.7111     3.1986 C.ar    
  29 C29            1.8031     5.1072     4.5247 C.ar    
  30 C30            2.9525     5.0433     5.2945 C.ar    
  31 F31            0.6514     5.5607     5.0660 F       
  32 C32            6.1483     3.7881    -1.4218 C.3     
  33 C33            5.3808     4.5091     5.5774 C.3     
  34 F34            5.1020     4.9637     6.8708 F       
  35 F35            5.8297     3.1853     5.6350 F       
  36 F36            6.3717     5.3131     5.0040 F       
  37 H37            1.7886    -2.9973    -1.2280 H       
  38 H38            4.0500    -2.0026    -1.0173 H       
  39 H39            2.8947     2.5527    -2.4246 H       
  40 H40            1.6071     2.8159    -1.2191 H       
  41 H41            3.7982     3.6916    -0.4021 H       
  42 H42            3.2272     2.3392     0.6105 H       
  43 H43            6.8991     1.8290    -0.9328 H       
  44 H44           -0.7978    -2.5713     0.3906 H       
  45 H45           -1.0085    -1.0986    -3.5979 H       
  46 H46           -3.2852    -4.5139    -0.6342 H       
  47 H47           -3.3881    -3.2529     0.6178 H       
  48 H48           -4.3927    -3.1369    -0.8470 H       
  49 H49            7.4013     3.2919     0.9945 H       
  50 H50            5.5955     0.8870     1.3072 H       
  51 H51            7.2244     1.1793     1.9944 H       
  52 H52            4.6333     1.6967     3.2436 H       
  53 H53            6.2621     1.9890     3.9308 H       
  54 H54            6.2971     4.2217     3.2167 H       
  55 H55            3.0419     3.9387     1.6113 H       
  56 H56            0.9419     4.7648     2.5961 H       
  57 H57            2.9275     5.3516     6.3292 H       
  58 H58            7.1252     4.2646    -1.3396 H       
  59 H59            5.9540     3.5351    -2.4640 H       
  60 H60            5.3790     4.4726    -1.0645 H       
@<TRIPOS>BOND
   1    1    2 2
   2    1    6 1
   3    1   37 1
   4    2    3 1
   5    2   13 1
   6    3    4 am
   7    3   12 2
   8    4    5 1
   9    4    7 1
  10    5    6 2
  11    5   10 1
  12    6   38 1
  13    7    8 1
  14    7   39 1
  15    7   40 1
  16    8    9 1
  17    8   41 1
  18    8   42 1
  19    9   10 am
  20    9   11 1
  21   10   19 2
  22   11   32 1
  23   11   20 1
  24   11   43 1
  25   13   14 1
  26   13   15 1
  27   14   17 2
  28   14   44 1
  29   15   16 2
  30   15   45 1
  31   16   17 1
  32   17   18 1
  33   18   46 1
  34   18   47 1
  35   18   48 1
  36   20   21 1
  37   20   24 1
  38   20   49 1
  39   21   22 1
  40   21   50 1
  41   21   51 1
  42   22   23 1
  43   22   52 1
  44   22   53 1
  45   23   24 1
  46   23   25 1
  47   23   54 1
  48   25   26 ar
  49   25   27 ar
  50   26   33 1
  51   26   30 ar
  52   27   28 ar
  53   27   55 1
  54   28   29 ar
  55   28   56 1
  56   29   30 ar
  57   29   31 1
  58   30   57 1
  59   32   58 1
  60   32   59 1
  61   32   60 1
  62   33   34 1
  63   33   35 1
  64   33   36 1

#	End of record

