#	Name: ASD08070413
#	Creating user name:	WinNT
#	Creation time:	15. 06. 2019 21:14

#	Modifying user name:	WinNT
#	Modification time:	15. 06. 2019 21:14

#	Program:	/corina/corina34_cracker 3.40 0067  02.08.2006

@<TRIPOS>MOLECULE
ASD08070413
  47   48    0    0    0
SMALL
NO_CHARGES


@<TRIPOS>ATOM
   1 C1            -0.0180     1.4742     0.0101 C.2     
   2 C2             0.0021    -0.0041     0.0020 C.ar    
   3 C3             0.0231    -0.7114     1.2051 C.ar    
   4 C4             0.0413    -2.0908     1.1905 C.ar    
   5 C5             0.0391    -2.7730    -0.0132 C.ar    
   6 C6             0.0183    -2.0779    -1.2093 C.ar    
   7 C7            -0.0058    -0.6985    -1.2087 C.ar    
   8 O8             1.0263     2.0963     0.0035 O.2     
   9 N9            -1.1942     2.1322     0.0193 N.am    
  10 C10           -0.0347     0.0569    -2.5124 C.3     
  11 C11            0.0600    -4.2798    -0.0215 C.3     
  12 C12            0.0265     0.0301     2.5171 C.3     
  13 C13           -1.2141     3.5970     0.0274 C.3     
  14 C14           -2.5311     4.0925    -0.5733 C.3     
  15 C15           -2.5518     5.6223    -0.5649 C.3     
  16 C16           -2.4262     6.1262     0.8743 C.3     
  17 C17           -1.1092     5.6307     1.4750 C.3     
  18 C18           -1.0885     4.1009     1.4665 C.3     
  19 C19           -1.3812     6.1529    -1.3950 C.3     
  20 C20           -2.6567     3.5887    -2.0125 C.3     
  21 H21            0.0575    -2.6393     2.1207 H       
  22 H22            0.0168    -2.6164    -2.1455 H       
  23 H23           -2.0276     1.6358     0.0206 H       
  24 H24            0.9858     0.2530    -2.8414 H       
  25 H25           -0.5513    -0.5380    -3.2656 H       
  26 H26           -0.5595     1.0020    -2.3731 H       
  27 H27           -0.9624    -4.6574    -0.0136 H       
  28 H28            0.5702    -4.6312    -0.9184 H       
  29 H29            0.5875    -4.6407     0.8615 H       
  30 H30           -1.0003     0.1955     2.8435 H       
  31 H31            0.5554    -0.5593     3.2661 H       
  32 H32            0.5267     0.9902     2.3905 H       
  33 H33           -0.3801     3.9750    -0.5640 H       
  34 H34           -3.3651     3.7146     0.0180 H       
  35 H35           -3.4901     5.9753    -0.9929 H       
  36 H36           -2.4410     7.2161     0.8803 H       
  37 H37           -3.2602     5.7483     1.4656 H       
  38 H38           -0.2752     6.0086     0.8836 H       
  39 H39           -1.0197     5.9896     2.5003 H       
  40 H40           -1.9225     3.7229     2.0579 H       
  41 H41           -0.1502     3.7479     1.8945 H       
  42 H42           -1.4707     5.7939    -2.4203 H       
  43 H43           -1.3960     7.2427    -1.3890 H       
  44 H44           -0.4429     5.7999    -0.9671 H       
  45 H45           -2.6419     2.4988    -2.0185 H       
  46 H46           -3.5950     3.9417    -2.4405 H       
  47 H47           -1.8227     3.9666    -2.6039 H       
@<TRIPOS>BOND
   1    1    2 1
   2    1    8 2
   3    1    9 am
   4    2    3 ar
   5    2    7 ar
   6    3    4 ar
   7    3   12 1
   8    4    5 ar
   9    4   21 1
  10    5    6 ar
  11    5   11 1
  12    6    7 ar
  13    6   22 1
  14    7   10 1
  15    9   13 1
  16    9   23 1
  17   10   24 1
  18   10   25 1
  19   10   26 1
  20   11   27 1
  21   11   28 1
  22   11   29 1
  23   12   30 1
  24   12   31 1
  25   12   32 1
  26   13   14 1
  27   13   18 1
  28   13   33 1
  29   14   15 1
  30   14   20 1
  31   14   34 1
  32   15   16 1
  33   15   19 1
  34   15   35 1
  35   16   17 1
  36   16   36 1
  37   16   37 1
  38   17   18 1
  39   17   38 1
  40   17   39 1
  41   18   40 1
  42   18   41 1
  43   19   42 1
  44   19   43 1
  45   19   44 1
  46   20   45 1
  47   20   46 1
  48   20   47 1

#	End of record

