#	Name: ASD01880415
#	Creating user name:	WinNT
#	Creation time:	15. 06. 2019 19:40

#	Modifying user name:	WinNT
#	Modification time:	15. 06. 2019 19:40

#	Program:	/corina/corina34_cracker 3.40 0067  02.08.2006

@<TRIPOS>MOLECULE
ASD01880415
  41   41    0    0    0
SMALL
NO_CHARGES


@<TRIPOS>ATOM
   1 C1            -0.0173     1.4248     0.0099 C.3     
   2 O2             0.0021    -0.0041     0.0020 O.3     
   3 C3             0.6066    -0.6080    -1.0572 C.ar    
   4 C4             1.9630    -0.9061    -1.0082 C.ar    
   5 O5             2.6890    -0.5949     0.0989 O.3     
   6 C6             2.5752    -1.5220    -2.0895 C.ar    
   7 C7             1.8383    -1.8388    -3.2150 C.ar    
   8 C8             0.4886    -1.5438    -3.2678 C.ar    
   9 C9            -0.1322    -0.9333    -2.1887 C.ar    
  10 O10           -1.4599    -0.6439    -2.2414 O.3     
  11 N11           -0.2959    -1.8852    -4.4757 N.pl3   
  12 O12            0.2477    -2.4256    -5.4222 O.2     
  13 O13           -1.4850    -1.6257    -4.5230 O.2     
  14 C14            4.0461    -1.8459    -2.0374 C.3     
  15 P15            4.2763    -3.5164    -1.3448 P.3     
  16 O16            3.4853    -4.4896    -2.1305 O.2     
  17 C17            6.0412    -3.9670    -1.4189 C.3     
  18 C18            6.2181    -5.4139    -0.9540 C.3     
  19 C19            7.6993    -5.7920    -1.0162 C.3     
  20 C20            7.8897    -7.1730    -0.4436 C.2     
  21 O21            8.0011    -8.1230    -1.1818 O.2     
  22 O22            7.9355    -7.3476     0.8865 O.3     
  23 N23            8.1508    -5.7750    -2.4140 N.3     
  24 O24            3.7816    -3.5350     0.1872 O.3     
  25 H25            1.0053     1.8021     0.0021 H       
  26 H26           -0.5445     1.7859    -0.8732 H       
  27 H27           -0.5275     1.7763     0.9067 H       
  28 H28            2.7124    -1.2965     0.7640 H       
  29 H29            2.3181    -2.3177    -4.0557 H       
  30 H30           -2.0304    -1.3534    -1.9153 H       
  31 H31            4.4620    -1.8095    -3.0443 H       
  32 H32            4.5563    -1.1176    -1.4070 H       
  33 H33            6.3986    -3.8684    -2.4439 H       
  34 H34            6.6130    -3.3042    -0.7694 H       
  35 H35            5.8607    -5.5124     0.0710 H       
  36 H36            5.6463    -6.0766    -1.6035 H       
  37 H37            8.2819    -5.0753    -0.4375 H       
  38 H38            8.0591    -8.2516     1.2066 H       
  39 H39            7.6255    -6.4317    -2.9717 H       
  40 H40            8.0937    -4.8450    -2.8011 H       
  41 H41            4.2575    -2.9198     0.7618 H       
@<TRIPOS>BOND
   1    1    2 1
   2    1   25 1
   3    1   26 1
   4    1   27 1
   5    2    3 1
   6    3    4 ar
   7    3    9 ar
   8    4    5 1
   9    4    6 ar
  10    5   28 1
  11    6    7 ar
  12    6   14 1
  13    7    8 ar
  14    7   29 1
  15    8    9 ar
  16    8   11 1
  17    9   10 1
  18   10   30 1
  19   11   12 2
  20   11   13 2
  21   14   15 1
  22   14   31 1
  23   14   32 1
  24   15   16 2
  25   15   17 1
  26   15   24 1
  27   17   18 1
  28   17   33 1
  29   17   34 1
  30   18   19 1
  31   18   35 1
  32   18   36 1
  33   19   20 1
  34   19   23 1
  35   19   37 1
  36   20   21 2
  37   20   22 1
  38   22   38 1
  39   23   39 1
  40   23   40 1
  41   24   41 1

#	End of record

