#	Name: ASD07300682
#	Creating user name:	WinNT
#	Creation time:	15. 06. 2019 21:10

#	Modifying user name:	WinNT
#	Modification time:	15. 06. 2019 21:10

#	Program:	/corina/corina34_cracker 3.40 0067  02.08.2006

@<TRIPOS>MOLECULE
ASD07300682
  48   51    0    0    0
SMALL
NO_CHARGES


@<TRIPOS>ATOM
   1 C1            -0.0034     1.3925     0.2414 C.2     
   2 C2             0.0021    -0.0041     0.0020 C.2     
   3 N3             1.1927     2.0681     0.2265 N.pl3   
   4 N4             1.1445    -0.6201    -0.2279 N.2     
   5 C5             2.3038     0.0468    -0.2402 C.2     
   6 C6             2.3505     1.3750    -0.0185 C.2     
   7 N7            -0.9664     2.2610     0.5002 N.2     
   8 C8            -0.4401     3.4743     0.6482 C.2     
   9 C9             0.9144     3.3818     0.4822 C.2     
  10 N10           -1.1860    -0.7178     0.0100 N.pl3   
  11 C11           -2.4813    -0.0311     0.1360 C.3     
  12 C12           -3.4038    -0.5300    -0.9821 C.3     
  13 O13           -3.4381    -1.9590    -0.9615 O.3     
  14 C14           -2.1747    -2.5785    -1.2141 C.3     
  15 C15           -1.1896    -2.1841    -0.1135 C.3     
  16 C16           -1.2064     4.7360     0.9516 C.3     
  17 N17            2.8802     6.4451     0.3152 N.pl3   
  18 C18            1.7671     5.7233     0.0007 C.2     
  19 C19            1.8912     4.4902     0.5659 C.2     
  20 C20            3.1342     4.4696     1.2508 C.2     
  21 C21            3.7086     5.6743     1.0772 C.2     
  22 C22            3.1465     7.8237    -0.1029 C.3     
  23 C23            2.5868     8.7908     0.9423 C.3     
  24 O24            2.8465    10.1355     0.5344 O.3     
  25 C25            2.3618    11.1233     1.4461 C.3     
  26 H26            3.2211    -0.4902    -0.4317 H       
  27 H27            3.2982     1.8929    -0.0334 H       
  28 H28           -2.9242    -0.2578     1.1059 H       
  29 H29           -2.3372     1.0451     0.0402 H       
  30 H30           -4.4093    -0.1393    -0.8259 H       
  31 H31           -3.0254    -0.1887    -1.9457 H       
  32 H32           -2.2960    -3.6617    -1.2248 H       
  33 H33           -1.7919    -2.2447    -2.1785 H       
  34 H34           -0.1904    -2.5330    -0.3744 H       
  35 H35           -1.5002    -2.6313     0.8308 H       
  36 H36           -1.2762     4.8680     2.0313 H       
  37 H37           -0.6887     5.5896     0.5139 H       
  38 H38           -2.2084     4.6631     0.5289 H       
  39 H39            0.9331     6.0687    -0.5923 H       
  40 H40            3.5435     3.6402     1.8084 H       
  41 H41            4.6653     5.9797     1.4747 H       
  42 H42            4.2220     7.9734    -0.1974 H       
  43 H43            2.6678     8.0107    -1.0642 H       
  44 H44            1.5113     8.6411     1.0367 H       
  45 H45            3.0655     8.6038     1.9035 H       
  46 H46            2.8358    10.9847     2.4178 H       
  47 H47            2.5982    12.1168     1.0649 H       
  48 H48            1.2816    11.0220     1.5510 H       
@<TRIPOS>BOND
   1    1    2 1
   2    1    3 1
   3    1    7 2
   4    2    4 2
   5    2   10 1
   6    3    6 1
   7    3    9 1
   8    4    5 1
   9    5    6 2
  10    5   26 1
  11    6   27 1
  12    7    8 1
  13    8    9 2
  14    8   16 1
  15    9   19 1
  16   10   11 1
  17   10   15 1
  18   11   12 1
  19   11   28 1
  20   11   29 1
  21   12   13 1
  22   12   30 1
  23   12   31 1
  24   13   14 1
  25   14   15 1
  26   14   32 1
  27   14   33 1
  28   15   34 1
  29   15   35 1
  30   16   36 1
  31   16   37 1
  32   16   38 1
  33   17   18 1
  34   17   21 1
  35   17   22 1
  36   18   19 2
  37   18   39 1
  38   19   20 1
  39   20   21 2
  40   20   40 1
  41   21   41 1
  42   22   23 1
  43   22   42 1
  44   22   43 1
  45   23   24 1
  46   23   44 1
  47   23   45 1
  48   24   25 1
  49   25   46 1
  50   25   47 1
  51   25   48 1

#	End of record

