#	Name: ASD01884151
#	Creating user name:	WinNT
#	Creation time:	15. 06. 2019 19:47

#	Modifying user name:	WinNT
#	Modification time:	15. 06. 2019 19:47

#	Program:	/corina/corina34_cracker 3.40 0067  02.08.2006

@<TRIPOS>MOLECULE
ASD01884151
  28   29    0    0    0
SMALL
NO_CHARGES


@<TRIPOS>ATOM
   1 C1            -0.0168     1.3876     0.0097 C.ar    
   2 C2             0.0021    -0.0041     0.0020 C.ar    
   3 C3            -1.2152    -0.6817     0.0105 C.ar    
   4 C4            -2.3876     0.0445     0.0261 C.ar    
   5 N5            -2.3660     1.3643     0.0325 N.ar    
   6 C6            -1.2331     2.0425     0.0306 C.ar    
   7 Cl7           -1.2726     3.7781     0.0400 Cl      
   8 O8             1.1768    -0.6840    -0.0138 O.3     
   9 C9             1.1005    -2.1109    -0.0206 C.3     
  10 C10            2.4924    -2.6883    -0.0381 C.ar    
  11 C11            3.1431    -2.9596     1.1510 C.ar    
  12 C12            4.4199    -3.4892     1.1349 C.ar    
  13 C13            5.0458    -3.7480    -0.0701 C.ar    
  14 C14            4.3947    -3.4776    -1.2592 C.ar    
  15 C15            3.1162    -2.9520    -1.2432 C.ar    
  16 C16            1.2717     2.1692     0.0016 C.3     
  17 F17            1.6578     2.4181    -1.3199 F       
  18 F18            1.0843     3.3841     0.6694 F       
  19 F19            2.2690     1.4308     0.6476 F       
  20 H20           -1.2405    -1.7614     0.0046 H       
  21 H21           -3.3354    -0.4732     0.0327 H       
  22 H22            0.5772    -2.4511     0.8730 H       
  23 H23            0.5588    -2.4415    -0.9068 H       
  24 H24            2.6542    -2.7574     2.0925 H       
  25 H25            4.9286    -3.7004     2.0639 H       
  26 H26            6.0435    -4.1611    -0.0827 H       
  27 H27            4.8838    -3.6794    -2.2007 H       
  28 H28            2.6061    -2.7442    -2.1721 H       
@<TRIPOS>BOND
   1    1    2 ar
   2    1   16 1
   3    1    6 ar
   4    2    3 ar
   5    2    8 1
   6    3    4 ar
   7    3   20 1
   8    4    5 ar
   9    4   21 1
  10    5    6 ar
  11    6    7 1
  12    8    9 1
  13    9   10 1
  14    9   22 1
  15    9   23 1
  16   10   11 ar
  17   10   15 ar
  18   11   12 ar
  19   11   24 1
  20   12   13 ar
  21   12   25 1
  22   13   14 ar
  23   13   26 1
  24   14   15 ar
  25   14   27 1
  26   15   28 1
  27   16   17 1
  28   16   18 1
  29   16   19 1

#	End of record

