#	Name: ASD01140349
#	Creating user name:	WinNT
#	Creation time:	15. 06. 2019 19:00

#	Modifying user name:	WinNT
#	Modification time:	15. 06. 2019 19:00

#	Program:	/corina/corina34_cracker 3.40 0067  02.08.2006

@<TRIPOS>MOLECULE
ASD01140349
  54   57    0    0    0
SMALL
NO_CHARGES


@<TRIPOS>ATOM
   1 C1             0.0964     1.5706     0.2395 C.ar    
   2 C2             0.0466     0.1743     0.2329 C.ar    
   3 C3             1.2225    -0.5614     0.1542 C.ar    
   4 C4             2.4621     0.0871     0.0810 C.ar    
   5 C5             2.4941     1.4838     0.0649 C.ar    
   6 C6             1.3113     2.2125     0.1559 C.ar    
   7 C7             3.6701    -0.7457     0.0565 C.2     
   8 N8             4.7286    -0.5799    -0.6565 N.2     
   9 C9             4.8499     0.5260    -1.6135 C.3     
  10 C10            4.7466     1.8149    -0.8399 C.2     
  11 N11            3.6913     2.1915    -0.0748 N.pl3   
  12 C12            4.0045     3.3863     0.4960 C.2     
  13 C13            5.6721     2.8089    -0.7650 C.2     
  14 N14            5.1799     3.7586     0.0745 N.2     
  15 C15            3.6714    -1.9175     0.9612 C.ar    
  16 C16            3.6459    -1.7348     2.3464 C.ar    
  17 C17            3.6925    -3.2090     0.4349 C.ar    
  18 C18            3.6937    -4.2970     1.2830 C.ar    
  19 C19            3.6737    -4.1109     2.6540 C.ar    
  20 C20            3.6474    -2.8343     3.1846 C.ar    
  21 C21           -1.2156    -0.4980     0.3077 C.1     
  22 C22           -2.2503    -1.0492     0.3690 C.1     
  23 F23            3.6203    -0.4875     2.8650 F       
  24 C24            6.9679     2.8494    -1.4645 C.2     
  25 O25            7.2950     1.9315    -2.1923 O.2     
  26 N26            7.7910     3.9035    -1.2979 N.am    
  27 C27            9.0797     3.9437    -1.9935 C.3     
  28 Si28          -3.9250    -1.9413     0.4683 Si      
  29 C29           -3.6500    -3.7836     0.4381 C.3     
  30 C30           -4.7879    -1.4680     2.0501 C.3     
  31 C31           -4.9791    -1.4468    -0.9860 C.3     
  32 H32           -0.8160     2.1447     0.3055 H       
  33 H33            1.1807    -1.6406     0.1497 H       
  34 H34            1.3472     3.2919     0.1610 H       
  35 H35            5.8149     0.4740    -2.1177 H       
  36 H36            4.0455     0.4698    -2.3469 H       
  37 H37            3.3808     3.9362     1.1852 H       
  38 H38            3.7074    -3.3570    -0.6349 H       
  39 H39            3.7100    -5.2971     0.8756 H       
  40 H40            3.6744    -4.9668     3.3127 H       
  41 H41            3.6319    -2.6958     4.2556 H       
  42 H42            7.5302     4.6356    -0.7174 H       
  43 H43            9.6831     3.0881    -1.6904 H       
  44 H44            8.9128     3.9075    -3.0701 H       
  45 H45            9.6021     4.8656    -1.7377 H       
  46 H46           -3.0332    -4.0729     1.2890 H       
  47 H47           -4.6107    -4.2953     0.4951 H       
  48 H48           -3.1451    -4.0605    -0.4874 H       
  49 H49           -4.9488    -0.3901     2.0678 H       
  50 H50           -5.7486    -1.9797     2.1071 H       
  51 H51           -4.1711    -1.7573     2.9010 H       
  52 H52           -4.4742    -1.7237    -1.9115 H       
  53 H53           -5.9398    -1.9586    -0.9291 H       
  54 H54           -5.1400    -0.3689    -0.9684 H       
@<TRIPOS>BOND
   1    1    2 ar
   2    1    6 ar
   3    1   32 1
   4    2    3 ar
   5    2   21 1
   6    3    4 ar
   7    3   33 1
   8    4    5 ar
   9    4    7 1
  10    5    6 ar
  11    5   11 1
  12    6   34 1
  13    7    8 2
  14    7   15 1
  15    8    9 1
  16    9   10 1
  17    9   35 1
  18    9   36 1
  19   10   11 1
  20   10   13 2
  21   11   12 1
  22   12   14 2
  23   12   37 1
  24   13   14 1
  25   13   24 1
  26   15   16 ar
  27   15   17 ar
  28   16   23 1
  29   16   20 ar
  30   17   18 ar
  31   17   38 1
  32   18   19 ar
  33   18   39 1
  34   19   20 ar
  35   19   40 1
  36   20   41 1
  37   21   22 3
  38   22   28 1
  39   24   25 2
  40   24   26 am
  41   26   27 1
  42   26   42 1
  43   27   43 1
  44   27   44 1
  45   27   45 1
  46   28   29 1
  47   28   30 1
  48   28   31 1
  49   29   46 1
  50   29   47 1
  51   29   48 1
  52   30   49 1
  53   30   50 1
  54   30   51 1
  55   31   52 1
  56   31   53 1
  57   31   54 1

#	End of record

