#	Name: ASD01410626
#	Creating user name:	WinNT
#	Creation time:	15. 06. 2019 19:18

#	Modifying user name:	WinNT
#	Modification time:	15. 06. 2019 19:18

#	Program:	/corina/corina34_cracker 3.40 0067  02.08.2006

@<TRIPOS>MOLECULE
ASD01410626
  74   77    0    0    0
SMALL
NO_CHARGES


@<TRIPOS>ATOM
   1 C1            -1.8209    -5.1208     1.4384 C.ar    
   2 C2            -1.4689    -5.1157     0.0958 C.ar    
   3 C3            -0.2085    -4.6865    -0.2706 C.ar    
   4 N4             0.6594    -4.2838     0.6377 N.ar    
   5 C5             0.3611    -4.2742     1.9266 C.ar    
   6 C6            -0.8881    -4.6923     2.3670 C.ar    
   7 O7             1.2841    -3.8519     2.8268 O.3     
   8 C8             2.5240    -3.5338     2.3682 C.ar    
   9 C9             2.7118    -2.3729     1.6276 C.ar    
  10 C10            3.9661    -2.0406     1.1574 C.ar    
  11 C11            5.0504    -2.8659     1.4213 C.ar    
  12 C12            4.8675    -4.0395     2.1684 C.ar    
  13 C13            3.5950    -4.3638     2.6451 C.ar    
  14 N14            6.3170    -2.5302     0.9452 N.am    
  15 C15            6.7749    -3.0794    -0.1972 C.2     
  16 C16            7.1502    -1.5804     1.6868 C.3     
  17 O17            7.9066    -2.8511    -0.5687 O.2     
  18 C18            5.8807    -3.9771    -1.0130 C.3     
  19 C19            6.7391    -4.9253    -1.8525 C.3     
  20 C20            5.8312    -5.8368    -2.6808 C.3     
  21 C21            4.9595    -4.9845    -3.6052 C.3     
  22 C22            4.1011    -4.0363    -2.7657 C.3     
  23 C23            5.0090    -3.1248    -1.9374 C.3     
  24 C24            4.0517    -5.8960    -4.4335 C.3     
  25 C25            7.6072    -0.4618     0.7482 C.3     
  26 C26            6.4157     0.3597     0.3282 C.ar    
  27 C27            5.9444     1.3649     1.1518 C.ar    
  28 C28            4.8514     2.1185     0.7666 C.ar    
  29 C29            4.2300     1.8671    -0.4424 C.ar    
  30 C30            4.7019     0.8625    -1.2663 C.ar    
  31 C31            5.7975     0.1118    -0.8831 C.ar    
  32 C32            8.3741    -2.3063     2.2489 C.3     
  33 O33            9.1974    -2.7567     1.1713 O.3     
  34 C34           10.3740    -3.4514     1.5898 C.3     
  35 C35           -1.2235    -4.6796     3.8362 C.3     
  36 F36           -2.5307    -5.1428     4.0201 F       
  37 F37           -0.3332    -5.5104     4.5249 F       
  38 F38           -1.1179    -3.3739     4.3273 F       
  39 C39            6.0127    -4.9225     2.4534 C.2     
  40 O40            7.1089    -4.6616     1.9987 O.2     
  41 O41            5.8441    -6.0191     3.2182 O.3     
  42 H42           -2.8017    -5.4474     1.7510 H       
  43 H43           -2.1732    -5.4441    -0.6542 H       
  44 H44            0.0705    -4.6810    -1.3139 H       
  45 H45            1.8716    -1.7274     1.4187 H       
  46 H46            4.1042    -1.1368     0.5826 H       
  47 H47            3.4464    -5.2653     3.2208 H       
  48 H48            6.5727    -1.1534     2.5067 H       
  49 H49            5.2434    -4.5580    -0.3463 H       
  50 H50            7.3764    -4.3444    -2.5192 H       
  51 H51            7.3601    -5.5325    -1.1939 H       
  52 H52            6.4428    -6.5123    -3.2789 H       
  53 H53            5.1940    -6.4177    -2.0141 H       
  54 H54            5.5968    -4.4036    -4.2719 H       
  55 H55            3.4801    -3.4291    -3.4243 H       
  56 H56            3.4638    -4.6172    -2.0990 H       
  57 H57            4.3974    -2.4493    -1.3393 H       
  58 H58            5.6463    -2.5439    -2.6041 H       
  59 H59            3.4144    -6.4769    -3.7668 H       
  60 H60            3.4306    -5.2888    -5.0921 H       
  61 H61            4.6632    -6.5715    -5.0316 H       
  62 H62            8.3243     0.1759     1.2651 H       
  63 H63            8.0776    -0.8969    -0.1336 H       
  64 H64            6.4298     1.5613     2.0963 H       
  65 H65            4.4827     2.9034     1.4103 H       
  66 H66            3.3756     2.4554    -0.7430 H       
  67 H67            4.2162     0.6659    -2.2107 H       
  68 H68            6.1662    -0.6731    -1.5268 H       
  69 H69            8.9431    -1.6239     2.8802 H       
  70 H70            8.0490    -3.1624     2.8401 H       
  71 H71           10.9845    -2.7927     2.2074 H       
  72 H72           10.0903    -4.3313     2.1673 H       
  73 H73           10.9445    -3.7602     0.7138 H       
  74 H74            6.6053    -6.6074     3.3160 H       
@<TRIPOS>BOND
   1    1    2 ar
   2    1    6 ar
   3    1   42 1
   4    2    3 ar
   5    2   43 1
   6    3    4 ar
   7    3   44 1
   8    4    5 ar
   9    5    6 ar
  10    5    7 1
  11    6   35 1
  12    7    8 1
  13    8    9 ar
  14    8   13 ar
  15    9   10 ar
  16    9   45 1
  17   10   11 ar
  18   10   46 1
  19   11   12 ar
  20   11   14 1
  21   12   13 ar
  22   12   39 1
  23   13   47 1
  24   14   15 am
  25   14   16 1
  26   15   17 2
  27   15   18 1
  28   16   25 1
  29   16   32 1
  30   16   48 1
  31   18   19 1
  32   18   23 1
  33   18   49 1
  34   19   20 1
  35   19   50 1
  36   19   51 1
  37   20   21 1
  38   20   52 1
  39   20   53 1
  40   21   22 1
  41   21   24 1
  42   21   54 1
  43   22   23 1
  44   22   55 1
  45   22   56 1
  46   23   57 1
  47   23   58 1
  48   24   59 1
  49   24   60 1
  50   24   61 1
  51   25   26 1
  52   25   62 1
  53   25   63 1
  54   26   27 ar
  55   26   31 ar
  56   27   28 ar
  57   27   64 1
  58   28   29 ar
  59   28   65 1
  60   29   30 ar
  61   29   66 1
  62   30   31 ar
  63   30   67 1
  64   31   68 1
  65   32   33 1
  66   32   69 1
  67   32   70 1
  68   33   34 1
  69   34   71 1
  70   34   72 1
  71   34   73 1
  72   35   36 1
  73   35   37 1
  74   35   38 1
  75   39   40 2
  76   39   41 1
  77   41   74 1

#	End of record

