#	Name: ASD03092605
#	Creating user name:	WinNT
#	Creation time:	15. 06. 2019 20:32

#	Modifying user name:	WinNT
#	Modification time:	15. 06. 2019 20:32

#	Program:	/corina/corina34_cracker 3.40 0067  02.08.2006

@<TRIPOS>MOLECULE
ASD03092605
  43   45    0    0    0
SMALL
NO_CHARGES


@<TRIPOS>ATOM
   1 N1            -0.0169     1.3951     0.0097 N.pl3   
   2 N2             0.0021    -0.0041     0.0020 N.2     
   3 C3             1.2418    -0.4097    -0.0120 C.2     
   4 C4             2.0751     0.7313    -0.0138 C.2     
   5 C5             1.2504     1.8383    -0.0000 C.2     
   6 C6             3.5493     0.7384    -0.0274 C.2     
   7 O7             4.1523     1.7944    -0.0271 O.2     
   8 N8             4.2287    -0.4256    -0.0402 N.am    
   9 C9             5.6936    -0.4186    -0.0537 C.3     
  10 N10            7.5939    -5.7113    -0.3742 N.pl3   
  11 C11            7.6381    -5.8624    -1.7334 C.2     
  12 C12            7.2273    -4.7338    -2.3329 C.2     
  13 C13            6.8926    -3.7821    -1.2708 C.ar    
  14 C14            6.4206    -2.4681    -1.2583 C.ar    
  15 C15            6.2026    -1.8369    -0.0664 C.ar    
  16 C16            6.4468    -2.4916     1.1333 C.ar    
  17 C17            6.9131    -3.7877     1.1441 C.ar    
  18 C18            7.1421    -4.4497    -0.0580 C.ar    
  19 C19            8.0827    -7.1108    -2.4510 C.3     
  20 C20           -1.2173     2.2349     0.0202 C.3     
  21 C21           -2.1156     1.8553    -1.1587 C.3     
  22 O22           -3.2865     2.6744    -1.1484 O.3     
  23 C23           -4.1975     2.3994    -2.2145 C.3     
  24 H24            1.5732    -1.4376    -0.0201 H       
  25 H25            1.5666     2.8709     0.0025 H       
  26 H26            3.7477    -1.2679    -0.0405 H       
  27 H27            6.0462     0.1020    -0.9441 H       
  28 H28            6.0627     0.0920     0.8357 H       
  29 H29            7.8402    -6.3928     0.2706 H       
  30 H30            7.1569    -4.5604    -3.3965 H       
  31 H31            6.2292    -1.9522    -2.1877 H       
  32 H32            6.2697    -1.9794     2.0675 H       
  33 H33            7.1004    -4.2883     2.0826 H       
  34 H34            7.2230    -7.7601    -2.6171 H       
  35 H35            8.5247    -6.8407    -3.4100 H       
  36 H36            8.8218    -7.6346    -1.8449 H       
  37 H37           -1.7591     2.0825     0.9537 H       
  38 H38           -0.9286     3.2825    -0.0655 H       
  39 H39           -1.5738     2.0076    -2.0921 H       
  40 H40           -2.4043     0.8077    -1.0729 H       
  41 H41           -5.0592     3.0624    -2.1361 H       
  42 H42           -3.6989     2.5631    -3.1698 H       
  43 H43           -4.5294     1.3632    -2.1506 H       
@<TRIPOS>BOND
   1    1    2 1
   2    1    5 1
   3    1   20 1
   4    2    3 2
   5    3    4 1
   6    3   24 1
   7    4    5 2
   8    4    6 1
   9    5   25 1
  10    6    7 2
  11    6    8 am
  12    8    9 1
  13    8   26 1
  14    9   15 1
  15    9   27 1
  16    9   28 1
  17   10   11 1
  18   10   18 1
  19   10   29 1
  20   11   12 2
  21   11   19 1
  22   12   13 1
  23   12   30 1
  24   13   14 ar
  25   13   18 ar
  26   14   15 ar
  27   14   31 1
  28   15   16 ar
  29   16   17 ar
  30   16   32 1
  31   17   18 ar
  32   17   33 1
  33   19   34 1
  34   19   35 1
  35   19   36 1
  36   20   21 1
  37   20   37 1
  38   20   38 1
  39   21   22 1
  40   21   39 1
  41   21   40 1
  42   22   23 1
  43   23   41 1
  44   23   42 1
  45   23   43 1

#	End of record

