#	Name: ASD01881345
#	Creating user name:	WinNT
#	Creation time:	15. 06. 2019 19:42

#	Modifying user name:	WinNT
#	Modification time:	15. 06. 2019 19:42

#	Program:	/corina/corina34_cracker 3.40 0067  02.08.2006

@<TRIPOS>MOLECULE
ASD01881345
  25   26    0    0    0
SMALL
NO_CHARGES


@<TRIPOS>ATOM
   1 C1            -0.0304     1.0826     0.4129 C.3     
   2 C2             0.1955    -0.3042     0.9894 C.2     
   3 C3             0.5560    -0.0638     2.4515 C.3     
   4 C4             1.4368     1.2088     2.3868 C.3     
   5 C5             0.7637     2.0648     1.2925 C.3     
   6 C6             1.1740     1.8310    -0.1625 C.3     
   7 C7             1.4209     1.9315     3.7091 C.2     
   8 O8             0.6277     2.8225     3.9011 O.2     
   9 O9             2.2880     1.5855     4.6735 O.3     
  10 C10            2.4309     1.0377    -0.4112 C.2     
  11 O11            2.4038    -0.1691    -0.3595 O.2     
  12 O12            3.5806     1.6719    -0.6903 O.3     
  13 S13            0.0690    -1.8500     0.1532 S.3     
  14 O14            1.0073    -3.1325     0.6331 O.2     
  15 O15           -0.9886    -2.0238    -1.1144 O.2     
  16 N16            2.8120     0.8657     2.0009 N.3     
  17 H17           -1.0290     1.3156     0.0433 H       
  18 H18           -0.3402     0.1172     3.0449 H       
  19 H19            1.1220    -0.9046     2.8524 H       
  20 H20            0.3463     3.0262     1.5918 H       
  21 H21            0.9748     2.6309    -0.8756 H       
  22 H22            2.2398     2.0778     5.5045 H       
  23 H23            4.3603     1.1206    -0.8423 H       
  24 H24            3.4123     1.6756     2.0436 H       
  25 H25            3.1726     0.1178     2.5742 H       
@<TRIPOS>BOND
   1    1    2 1
   2    1    6 1
   3    1    5 1
   4    1   17 1
   5    2    3 1
   6    2   13 2
   7    3    4 1
   8    3   18 1
   9    3   19 1
  10    4    5 1
  11    4    7 1
  12    4   16 1
  13    5    6 1
  14    5   20 1
  15    6   10 1
  16    6   21 1
  17    7    8 2
  18    7    9 1
  19    9   22 1
  20   10   11 2
  21   10   12 1
  22   12   23 1
  23   13   14 2
  24   13   15 2
  25   16   24 1
  26   16   25 1

#	End of record

