#	Name: ASD05490074
#	Creating user name:	WinNT
#	Creation time:	15. 06. 2019 21:01

#	Modifying user name:	WinNT
#	Modification time:	15. 06. 2019 21:01

#	Program:	/corina/corina34_cracker 3.40 0067  02.08.2006

@<TRIPOS>MOLECULE
ASD05490074
  65   69    0    0    0
SMALL
NO_CHARGES


@<TRIPOS>ATOM
   1 N1            -0.0178     1.4608     0.0101 N.am    
   2 O2             4.5863     2.8161    -0.0262 O.3     
   3 N3             2.8511     4.3368    -0.0011 N.ar    
   4 C4             1.5540     4.6376     0.0125 C.ar    
   5 C5             3.2565     3.0770    -0.0125 C.ar    
   6 N6             2.4054     2.0644    -0.0098 N.ar    
   7 C7             1.0946     2.2826     0.0039 C.ar    
   8 C8             0.6266     3.5971     0.0154 C.ar    
   9 N9             1.1342     5.9598     0.0241 N.pl3   
  10 C10           -1.1223     2.2312     0.0189 C.2     
  11 N11           -0.7663     3.5310     0.0284 N.am    
  12 C12            5.4681     3.9405    -0.0273 C.3     
  13 C13            6.9178     3.4518    -0.0435 C.3     
  14 O14            7.1762     2.7676    -1.2712 O.3     
  15 C15            8.5098     2.2679    -1.3886 C.3     
  16 O16           -2.2665     1.8171     0.0260 O.2     
  17 C17            0.0021    -0.0041     0.0020 C.3     
  18 C18            0.0225    -0.5140     1.4200 C.ar    
  19 C19            1.1872    -0.4399     2.1642 C.ar    
  20 C20            1.2122    -0.9067     3.4676 C.ar    
  21 C21            0.0750    -1.4483     4.0307 C.ar    
  22 C22           -1.1002    -1.5247     3.2856 C.ar    
  23 C23           -1.1218    -1.0488     1.9763 C.ar    
  24 C24           -2.3260    -2.1063     3.8865 C.ar    
  25 Cl25           2.6214     0.2400     1.4611 Cl      
  26 C26           -2.3061    -2.5779     5.1973 C.ar    
  27 C27           -3.4492    -3.1180     5.7512 C.ar    
  28 C28           -4.6128    -3.1919     5.0073 C.ar    
  29 C29           -4.6382    -2.7256     3.7051 C.ar    
  30 C30           -3.5029    -2.1776     3.1435 C.ar    
  31 C31           -3.4292    -3.6286     7.1689 C.3     
  32 N32           -3.7938    -2.5407     8.0863 N.3     
  33 C33           -4.0172    -3.0527     9.4508 C.3     
  34 C34           -2.7327    -1.5125     8.1372 C.3     
  35 C35           -2.7604    -0.9870     9.5941 C.3     
  36 C36           -3.0632    -2.2843    10.3894 C.3     
  37 H37            1.7881     6.6762     0.0223 H       
  38 H38            0.1868     6.1678     0.0340 H       
  39 H39           -1.3727     4.2880     0.0359 H       
  40 H40            5.2799     4.5490    -0.9119 H       
  41 H41            5.2961     4.5380     0.8679 H       
  42 H42            7.5900     4.3052     0.0452 H       
  43 H43            7.0814     2.7720     0.7927 H       
  44 H44            8.7064     1.5636    -0.5803 H       
  45 H45            8.6252     1.7622    -2.3473 H       
  46 H46            9.2150     3.0968    -1.3278 H       
  47 H47           -0.8878    -0.3767    -0.5053 H       
  48 H48            0.8920    -0.3525    -0.5222 H       
  49 H49            2.1235    -0.8471     4.0441 H       
  50 H50            0.0957    -1.8128     5.0471 H       
  51 H51           -2.0302    -1.1059     1.3949 H       
  52 H52           -1.3978    -2.5213     5.7788 H       
  53 H53           -5.5049    -3.6156     5.4445 H       
  54 H54           -5.5493    -2.7864     3.1284 H       
  55 H55           -3.5239    -1.8135     2.1270 H       
  56 H56           -4.1441    -4.4450     7.2712 H       
  57 H57           -2.4294    -3.9886     7.4114 H       
  58 H58           -5.0510    -2.8771     9.7482 H       
  59 H59           -3.7944    -4.1191     9.4878 H       
  60 H60           -1.7629    -1.9566     7.9123 H       
  61 H61           -2.9525    -0.7054     7.4384 H       
  62 H62           -1.7934    -0.5718     9.8779 H       
  63 H63           -3.5540    -0.2521     9.7291 H       
  64 H64           -3.5560    -2.0515    11.3333 H       
  65 H65           -2.1496    -2.8535    10.5605 H       
@<TRIPOS>BOND
   1    1   17 1
   2    1    7 1
   3    1   10 am
   4    2   12 1
   5    2    5 1
   6    3    4 ar
   7    3    5 ar
   8    4    9 1
   9    4    8 ar
  10    5    6 ar
  11    6    7 ar
  12    7    8 ar
  13    8   11 1
  14    9   37 1
  15    9   38 1
  16   10   11 am
  17   10   16 2
  18   11   39 1
  19   12   13 1
  20   12   40 1
  21   12   41 1
  22   13   14 1
  23   13   42 1
  24   13   43 1
  25   14   15 1
  26   15   44 1
  27   15   45 1
  28   15   46 1
  29   17   18 1
  30   17   47 1
  31   17   48 1
  32   18   19 ar
  33   18   23 ar
  34   19   20 ar
  35   19   25 1
  36   20   21 ar
  37   20   49 1
  38   21   22 ar
  39   21   50 1
  40   22   23 ar
  41   22   24 1
  42   23   51 1
  43   24   26 ar
  44   24   30 ar
  45   26   27 ar
  46   26   52 1
  47   27   28 ar
  48   27   31 1
  49   28   29 ar
  50   28   53 1
  51   29   30 ar
  52   29   54 1
  53   30   55 1
  54   31   32 1
  55   31   56 1
  56   31   57 1
  57   32   33 1
  58   32   34 1
  59   33   36 1
  60   33   58 1
  61   33   59 1
  62   34   35 1
  63   34   60 1
  64   34   61 1
  65   35   36 1
  66   35   62 1
  67   35   63 1
  68   36   64 1
  69   36   65 1

#	End of record

