#	Name: ASD03092377
#	Creating user name:	WinNT
#	Creation time:	15. 06. 2019 20:32

#	Modifying user name:	WinNT
#	Modification time:	15. 06. 2019 20:32

#	Program:	/corina/corina34_cracker 3.40 0067  02.08.2006

@<TRIPOS>MOLECULE
ASD03092377
  60   63    0    0    0
SMALL
NO_CHARGES


@<TRIPOS>ATOM
   1 C1            -0.1064     2.1230     0.7711 C.3     
   2 C2            -0.1161     0.6072     0.9791 C.3     
   3 C3             1.2136     1.3540     0.8555 C.3     
   4 C4            -0.5727     4.1565    -0.5693 C.2     
   5 C5            -0.5302     2.6504    -0.6012 C.3     
   6 O6            -0.2917     4.7496     0.4505 O.2     
   7 N7            -0.9230     4.8443    -1.6742 N.am    
   8 C8            -0.9643     6.3084    -1.6432 C.3     
   9 S9            -1.4022     7.7503    -5.3481 S.3     
  10 C10           -2.8732     7.4001    -4.5508 C.2     
  11 N11           -2.6409     6.9385    -3.3588 N.2     
  12 C12           -1.3817     6.8278    -2.9949 C.2     
  13 C13           -0.4955     7.2188    -3.9342 C.2     
  14 C14            3.0213     6.1033    -3.2090 C.ar    
  15 C15            1.6406     6.0727    -3.3176 C.ar    
  16 C16            0.9745     7.2039    -3.8007 C.ar    
  17 C17            1.7415     8.3236    -4.1552 C.ar    
  18 C18            3.1100     8.2693    -4.0161 C.ar    
  19 N19            3.7043     7.1830    -3.5557 N.ar    
  20 C20            3.9426     9.4671    -4.3943 C.3     
  21 O21            3.6810     5.0156    -2.7367 O.3     
  22 C22            5.1043     5.1080    -2.6479 C.3     
  23 N23           -4.1309     7.5828    -5.0964 N.3     
  24 C24           -4.0399     8.1207    -6.4616 C.3     
  25 C25           -5.4510     8.3631    -7.0039 C.3     
  26 O26           -6.1927     7.1414    -6.9516 O.3     
  27 C27           -6.3017     6.5898    -5.6366 C.3     
  28 C28           -4.8993     6.3295    -5.0804 C.3     
  29 C29           -7.0796     5.2738    -5.6975 C.3     
  30 C30           -5.3653     8.8472    -8.4527 C.3     
  31 H31           -0.3792     2.7493     1.6204 H       
  32 H32           -0.3952     0.2364     1.9654 H       
  33 H33           -0.4244    -0.0142     0.1384 H       
  34 H34            1.7801     1.2238    -0.0666 H       
  35 H35            1.8092     1.4744     1.7604 H       
  36 H36            0.1872     2.3230    -1.3537 H       
  37 H37           -1.5188     2.2642    -0.8494 H       
  38 H38           -1.1478     4.3699    -2.4899 H       
  39 H39           -1.6817     6.6357    -0.8907 H       
  40 H40            0.0243     6.6946    -1.3950 H       
  41 H41            1.0873     5.1896    -3.0340 H       
  42 H42            1.2648     9.2163    -4.5325 H       
  43 H43            4.0603    10.1164    -3.5267 H       
  44 H44            4.9232     9.1350    -4.7352 H       
  45 H45            3.4466    10.0164    -5.1946 H       
  46 H46            5.5187     5.2946    -3.6386 H       
  47 H47            5.3743     5.9267    -1.9810 H       
  48 H48            5.5053     4.1731    -2.2565 H       
  49 H49           -3.4893     9.0613    -6.4462 H       
  50 H50           -3.5222     7.4055    -7.1008 H       
  51 H51           -5.9498     9.1180    -6.3961 H       
  52 H52           -6.8252     7.2932    -4.9891 H       
  53 H53           -4.3953     5.5857    -5.6976 H       
  54 H54           -4.9759     5.9626    -4.0569 H       
  55 H55           -6.5541     4.5707    -6.3437 H       
  56 H56           -7.1623     4.8539    -4.6950 H       
  57 H57           -8.0766     5.4592    -6.0971 H       
  58 H58           -4.8681     8.0906    -9.0598 H       
  59 H59           -6.3702     9.0196    -8.8382 H       
  60 H60           -4.7966     9.7762    -8.4924 H       
@<TRIPOS>BOND
   1    1    2 1
   2    1    3 1
   3    1    5 1
   4    1   31 1
   5    2    3 1
   6    2   32 1
   7    2   33 1
   8    3   34 1
   9    3   35 1
  10    4    5 1
  11    4    6 2
  12    4    7 am
  13    5   36 1
  14    5   37 1
  15    7    8 1
  16    7   38 1
  17    8   12 1
  18    8   39 1
  19    8   40 1
  20    9   10 1
  21    9   13 1
  22   10   11 2
  23   10   23 1
  24   11   12 1
  25   12   13 2
  26   13   16 1
  27   14   15 ar
  28   14   19 ar
  29   14   21 1
  30   15   16 ar
  31   15   41 1
  32   16   17 ar
  33   17   18 ar
  34   17   42 1
  35   18   19 ar
  36   18   20 1
  37   20   43 1
  38   20   44 1
  39   20   45 1
  40   21   22 1
  41   22   46 1
  42   22   47 1
  43   22   48 1
  44   23   24 1
  45   23   28 1
  46   24   25 1
  47   24   49 1
  48   24   50 1
  49   25   26 1
  50   25   30 1
  51   25   51 1
  52   26   27 1
  53   27   28 1
  54   27   29 1
  55   27   52 1
  56   28   53 1
  57   28   54 1
  58   29   55 1
  59   29   56 1
  60   29   57 1
  61   30   58 1
  62   30   59 1
  63   30   60 1

#	End of record

