#	Name: ASD02408168
#	Creating user name:	WinNT
#	Creation time:	15. 06. 2019 20:21

#	Modifying user name:	WinNT
#	Modification time:	15. 06. 2019 20:21

#	Program:	/corina/corina34_cracker 3.40 0067  02.08.2006

@<TRIPOS>MOLECULE
ASD02408168
  52   55    0    0    0
SMALL
NO_CHARGES


@<TRIPOS>ATOM
   1 C1             0.4126     2.5266    -0.0561 C.3     
   2 C2             0.2033     1.0628     0.2349 C.ar    
   3 C3             0.2214     0.6082     1.5400 C.ar    
   4 C4            -0.0126     0.1756    -0.8033 C.ar    
   5 C5            -0.2046    -1.1668    -0.5364 C.ar    
   6 C6            -0.1804    -1.6226     0.7687 C.ar    
   7 C7             0.0293    -0.7347     1.8070 C.ar    
   8 C8            -0.0390     0.6724    -2.2258 C.3     
   9 C9             1.3678     0.7339    -2.7626 C.2     
  10 N10            1.5645     1.1557    -4.0267 N.am    
  11 N11            2.3556     0.3817    -1.9854 N.2     
  12 C12            3.6258     0.4165    -2.4082 C.2     
  13 C13            3.9025     0.8417    -3.7181 C.2     
  14 C14            2.8110     1.2237    -4.5397 C.2     
  15 N15            4.6469     0.0411    -1.5701 N.pl3   
  16 C16            5.9118     0.7883    -1.5496 C.3     
  17 O17            2.9943     1.6006    -5.6843 O.2     
  18 C18           -0.3903    -3.0862     1.0597 C.3     
  19 C19            6.2116     1.2110    -0.1079 C.3     
  20 C20            6.1912    -0.0228     0.7964 C.3     
  21 C21            4.8077    -0.6748     0.7572 C.3     
  22 C22            4.4930    -1.1118    -0.6723 C.3     
  23 O23            7.1788    -0.9618     0.3529 O.3     
  24 C24            8.0968    -1.1659     1.4461 C.3     
  25 C25            7.2725    -0.7285     2.6826 C.3     
  26 O26            6.4957     0.3690     2.1451 O.3     
  27 C27            5.2472     0.8931    -4.2078 C.1     
  28 N28            6.3139     0.9339    -4.5963 N.1     
  29 H29            1.4761     2.7208    -0.1956 H       
  30 H30           -0.1282     2.7978    -0.9628 H       
  31 H31            0.0415     3.1199     0.7796 H       
  32 H32            0.3859     1.3019     2.3512 H       
  33 H33           -0.3740    -1.8598    -1.3473 H       
  34 H34            0.0482    -1.0906     2.8264 H       
  35 H35           -0.6318    -0.0080    -2.8373 H       
  36 H36           -0.4829     1.6675    -2.2550 H       
  37 H37            0.8047     1.4122    -4.5724 H       
  38 H38            6.7172     0.1536    -1.9192 H       
  39 H39            5.8234     1.6737    -2.1791 H       
  40 H40            0.5714    -3.5991     1.0552 H       
  41 H41           -0.8575    -3.1988     2.0381 H       
  42 H42           -1.0367    -3.5194     0.2964 H       
  43 H43            7.1951     1.6787    -0.0630 H       
  44 H44            5.4553     1.9206     0.2278 H       
  45 H45            4.7963    -1.5436     1.4154 H       
  46 H46            4.0577     0.0433     1.0889 H       
  47 H47            3.4693    -1.4827    -0.7241 H       
  48 H48            5.1845    -1.8984    -0.9746 H       
  49 H49            8.3775    -2.2164     1.5223 H       
  50 H50            8.9799    -0.5376     1.3300 H       
  51 H51            6.6238    -1.5350     3.0244 H       
  52 H52            7.9253    -0.3877     3.4862 H       
@<TRIPOS>BOND
   1    1    2 1
   2    1   29 1
   3    1   30 1
   4    1   31 1
   5    2    3 ar
   6    2    4 ar
   7    3    7 ar
   8    3   32 1
   9    4    5 ar
  10    4    8 1
  11    5    6 ar
  12    5   33 1
  13    6    7 ar
  14    6   18 1
  15    7   34 1
  16    8    9 1
  17    8   35 1
  18    8   36 1
  19    9   10 1
  20    9   11 2
  21   10   14 am
  22   10   37 1
  23   11   12 1
  24   12   13 2
  25   12   15 1
  26   13   14 1
  27   13   27 1
  28   14   17 2
  29   15   16 1
  30   15   22 1
  31   16   19 1
  32   16   38 1
  33   16   39 1
  34   18   40 1
  35   18   41 1
  36   18   42 1
  37   19   20 1
  38   19   43 1
  39   19   44 1
  40   20   21 1
  41   20   23 1
  42   20   26 1
  43   21   22 1
  44   21   45 1
  45   21   46 1
  46   22   47 1
  47   22   48 1
  48   23   24 1
  49   24   25 1
  50   24   49 1
  51   24   50 1
  52   25   26 1
  53   25   51 1
  54   25   52 1
  55   27   28 3

#	End of record

