#	Name: ASD01948215
#	Creating user name:	WinNT
#	Creation time:	15. 06. 2019 20:13

#	Modifying user name:	WinNT
#	Modification time:	15. 06. 2019 20:13

#	Program:	/corina/corina34_cracker 3.40 0067  02.08.2006

@<TRIPOS>MOLECULE
ASD01948215
  40   42    0    0    0
SMALL
NO_CHARGES


@<TRIPOS>ATOM
   1 N1             0.1240     1.0565    -0.3470 N.ar    
   2 C2             0.1741    -0.2338    -0.1243 C.ar    
   3 C3             1.3566    -0.8470     0.3101 C.ar    
   4 C4             2.4943    -0.0662     0.5059 C.ar    
   5 C5             2.4050     1.3043     0.2585 C.ar    
   6 C6             1.1844     1.8393    -0.1727 C.ar    
   7 C7            -0.8534    -1.3349    -0.2378 C.3     
   8 N8            -0.1756    -2.5750     0.1547 N.am    
   9 C9             1.0998    -2.2920     0.4707 C.2     
  10 C10            2.6677     2.8011     2.5982 C.ar    
  11 C11            3.6243     2.9014     1.5974 C.ar    
  12 N12            3.5104     2.1263     0.4385 N.pl3   
  13 C13            2.7824     3.5683     3.7417 C.ar    
  14 C14            3.8486     4.4363     3.8907 C.ar    
  15 C15            4.8051     4.5395     2.8960 C.ar    
  16 C16            4.6965     3.7750     1.7494 C.ar    
  17 F17            5.6302     3.8757     0.7781 F       
  18 I18            4.0162     5.5977     5.6262 I       
  19 O19            1.9229    -3.1081     0.8360 O.2     
  20 C20            1.0747     3.2898    -0.4393 C.2     
  21 O21            2.0630     3.9949    -0.3804 O.2     
  22 N22           -0.1210     3.8297    -0.7478 N.am    
  23 O23           -0.2260     5.2186    -1.0031 O.3     
  24 C24           -1.5506     5.6533    -1.3169 C.3     
  25 C25           -1.5451     7.1618    -1.5726 C.3     
  26 O26           -0.7683     7.4445    -2.7382 O.3     
  27 H27            3.4203    -0.5099     0.8405 H       
  28 H28           -1.6895    -1.1370     0.4329 H       
  29 H29           -1.2077    -1.4114    -1.2658 H       
  30 H30           -0.5815    -3.4556     0.1815 H       
  31 H31            1.8319     2.1272     2.4812 H       
  32 H32            4.2032     2.1628    -0.2394 H       
  33 H33            2.0380     3.4901     4.5203 H       
  34 H34            5.6366     5.2184     3.0152 H       
  35 H35           -0.9097     3.2670    -0.7948 H       
  36 H36           -1.9013     5.1348    -2.2093 H       
  37 H37           -2.2141     5.4288    -0.4818 H       
  38 H38           -2.5673     7.5083    -1.7244 H       
  39 H39           -1.1114     7.6743    -0.7139 H       
  40 H40           -0.7209     8.3844    -2.9608 H       
@<TRIPOS>BOND
   1    1    2 ar
   2    1    6 ar
   3    2    3 ar
   4    2    7 1
   5    3    4 ar
   6    3    9 1
   7    4    5 ar
   8    4   27 1
   9    5    6 ar
  10    5   12 1
  11    6   20 1
  12    7    8 1
  13    7   28 1
  14    7   29 1
  15    8    9 am
  16    8   30 1
  17    9   19 2
  18   10   11 ar
  19   10   13 ar
  20   10   31 1
  21   11   12 1
  22   11   16 ar
  23   12   32 1
  24   13   14 ar
  25   13   33 1
  26   14   15 ar
  27   14   18 1
  28   15   16 ar
  29   15   34 1
  30   16   17 1
  31   20   21 2
  32   20   22 am
  33   22   23 1
  34   22   35 1
  35   23   24 1
  36   24   25 1
  37   24   36 1
  38   24   37 1
  39   25   26 1
  40   25   38 1
  41   25   39 1
  42   26   40 1

#	End of record

