#	Name: ASD03430486
#	Creating user name:	WinNT
#	Creation time:	15. 06. 2019 20:41

#	Modifying user name:	WinNT
#	Modification time:	15. 06. 2019 20:41

#	Program:	/corina/corina34_cracker 3.40 0067  02.08.2006

@<TRIPOS>MOLECULE
ASD03430486
  34   35    0    0    0
SMALL
NO_CHARGES


@<TRIPOS>ATOM
   1 C1            -0.0167     1.3781     0.0096 C.ar    
   2 C2             0.0021    -0.0041     0.0020 C.ar    
   3 C3             1.2084    -0.6789    -0.0132 C.ar    
   4 C4             2.3960     0.0285    -0.0212 C.ar    
   5 C5             2.3773     1.4107    -0.0145 C.ar    
   6 C6             1.1709     2.0855     0.0021 C.ar    
   7 S7            -1.5544     2.2383     0.0216 S.o2    
   8 O8            -1.2971     3.5278    -0.5171 O.2     
   9 O9            -2.5173     1.3465    -0.5231 O.2     
  10 O10           -1.9407     2.4503     1.4784 O.3     
  11 C11            3.7112    -0.7071    -0.0368 C.3     
  12 C12           -1.1905     3.4737     2.1356 C.3     
  13 O13           -3.0182     4.0502     3.6115 O.3     
  14 C14           -1.6607     3.5990     3.5862 C.3     
  15 C15           -0.7806     4.6122     4.3238 C.3     
  16 O16           -1.2948     4.8067     5.6447 O.3     
  17 C17           -2.6523     5.2579     5.6701 C.3     
  18 C18           -3.5324     4.2446     4.9325 C.3     
  19 H19           -0.9258    -0.5567     0.0083 H       
  20 H20            1.2231    -1.7588    -0.0184 H       
  21 H21            3.3051     1.9634    -0.0205 H       
  22 H22            1.1563     3.1654     0.0077 H       
  23 H23            4.0186    -0.8800    -1.0681 H       
  24 H24            4.4676    -0.1100     0.4726 H       
  25 H25            3.5986    -1.6635     0.4740 H       
  26 H26           -0.1315     3.2161     2.1179 H       
  27 H27           -1.3422     4.4226     1.6212 H       
  28 H28           -1.5899     2.6289     4.0781 H       
  29 H29            0.2400     4.2339     4.3822 H       
  30 H30           -0.7884     5.5606     3.7866 H       
  31 H31           -2.9873     5.3471     6.7035 H       
  32 H32           -2.7230     6.2280     5.1781 H       
  33 H33           -4.5529     4.6230     4.8741 H       
  34 H34           -3.5246     3.2962     5.4697 H       
@<TRIPOS>BOND
   1    1    2 ar
   2    1    6 ar
   3    1    7 1
   4    2    3 ar
   5    2   19 1
   6    3    4 ar
   7    3   20 1
   8    4    5 ar
   9    4   11 1
  10    5    6 ar
  11    5   21 1
  12    6   22 1
  13    7    8 2
  14    7    9 2
  15    7   10 1
  16   10   12 1
  17   11   23 1
  18   11   24 1
  19   11   25 1
  20   12   14 1
  21   12   26 1
  22   12   27 1
  23   13   14 1
  24   13   18 1
  25   14   15 1
  26   14   28 1
  27   15   16 1
  28   15   29 1
  29   15   30 1
  30   16   17 1
  31   17   18 1
  32   17   31 1
  33   17   32 1
  34   18   33 1
  35   18   34 1

#	End of record

