#	Name: ASD01148767
#	Creating user name:	WinNT
#	Creation time:	15. 06. 2019 19:03

#	Modifying user name:	WinNT
#	Modification time:	15. 06. 2019 19:03

#	Program:	/corina/corina34_cracker 3.40 0067  02.08.2006

@<TRIPOS>MOLECULE
ASD01148767
  48   50    0    0    0
SMALL
NO_CHARGES


@<TRIPOS>ATOM
   1 N1            -0.0155     1.3412     0.0827 N.pl3   
   2 C2             0.0020     0.0055    -0.1104 C.2     
   3 C3             1.3175    -0.4067    -0.1563 C.2     
   4 C4             2.1209     0.7506     0.0195 C.2     
   5 C5             1.2771     1.8041     0.1631 C.2     
   6 C6             1.7971    -1.7843    -0.3498 C.2     
   7 O7             1.0001    -2.6914    -0.4887 O.2     
   8 O8             3.1202    -2.0403    -0.3731 O.3     
   9 C9            -1.1681     2.1320     0.1797 C.ar    
  10 C10           -2.0096     2.0036     1.2769 C.ar    
  11 C11           -3.1446     2.7847     1.3700 C.ar    
  12 C12           -3.4436     3.6942     0.3719 C.ar    
  13 C13           -2.6080     3.8240    -0.7220 C.ar    
  14 C14           -1.4681     3.0495    -0.8180 C.ar    
  15 S15           -4.2132     2.6222     2.7615 S.o2    
  16 O16           -5.4831     3.0384     2.2785 O.2     
  17 O17           -4.0011     1.2915     3.2126 O.2     
  18 C18           -3.5693     3.8136     3.9683 C.3     
  19 C19           -1.2073    -0.8827    -0.2507 C.3     
  20 C20            1.6797     3.2120     0.3703 C.ar    
  21 C21            0.7825     4.1219     0.9311 C.ar    
  22 C22            1.1636     5.4339     1.1218 C.ar    
  23 C23            2.4336     5.8486     0.7581 C.ar    
  24 C24            3.3281     4.9504     0.2008 C.ar    
  25 C25            2.9603     3.6345     0.0110 C.ar    
  26 Cl26           2.9062     7.5012     1.0012 Cl      
  27 C27            3.5210    -3.4222    -0.5681 C.3     
  28 C28            5.0481    -3.5155    -0.5659 C.3     
  29 H29            3.2002     0.7861     0.0359 H       
  30 H30           -1.7768     1.2933     2.0565 H       
  31 H31           -4.3318     4.3040     0.4469 H       
  32 H32           -2.8443     4.5348    -1.5000 H       
  33 H33           -0.8135     3.1545    -1.6705 H       
  34 H34           -3.6047     4.8166     3.5431 H       
  35 H35           -4.1780     3.7804     4.8719 H       
  36 H36           -2.5384     3.5598     4.2151 H       
  37 H37           -1.4889    -0.9497    -1.3016 H       
  38 H38           -0.9729    -1.8780     0.1268 H       
  39 H39           -2.0348    -0.4628     0.3211 H       
  40 H40           -0.2085     3.7996     1.2148 H       
  41 H41            0.4699     6.1390     1.5554 H       
  42 H42            4.3172     5.2796    -0.0813 H       
  43 H43            3.6604     2.9337    -0.4193 H       
  44 H44            3.1184    -4.0345     0.2387 H       
  45 H45            3.1364    -3.7807    -1.5229 H       
  46 H46            5.4507    -2.9031    -1.3728 H       
  47 H47            5.4326    -3.1569     0.3889 H       
  48 H48            5.3490    -4.5529    -0.7123 H       
@<TRIPOS>BOND
   1    1    2 1
   2    1    5 1
   3    1    9 1
   4    2    3 2
   5    2   19 1
   6    3    4 1
   7    3    6 1
   8    4    5 2
   9    4   29 1
  10    5   20 1
  11    6    7 2
  12    6    8 1
  13    8   27 1
  14    9   10 ar
  15    9   14 ar
  16   10   11 ar
  17   10   30 1
  18   11   12 ar
  19   11   15 1
  20   12   13 ar
  21   12   31 1
  22   13   14 ar
  23   13   32 1
  24   14   33 1
  25   15   16 2
  26   15   17 2
  27   15   18 1
  28   18   34 1
  29   18   35 1
  30   18   36 1
  31   19   37 1
  32   19   38 1
  33   19   39 1
  34   20   21 ar
  35   20   25 ar
  36   21   22 ar
  37   21   40 1
  38   22   23 ar
  39   22   41 1
  40   23   24 ar
  41   23   26 1
  42   24   25 ar
  43   24   42 1
  44   25   43 1
  45   27   28 1
  46   27   44 1
  47   27   45 1
  48   28   46 1
  49   28   47 1
  50   28   48 1

#	End of record

