#	Name: ASD00311361
#	Creating user name:	WinNT
#	Creation time:	15. 06. 2019 18:34

#	Modifying user name:	WinNT
#	Modification time:	15. 06. 2019 18:34

#	Program:	/corina/corina34_cracker 3.40 0067  02.08.2006

@<TRIPOS>MOLECULE
ASD00311361
  41   44    0    0    0
SMALL
NO_CHARGES


@<TRIPOS>ATOM
   1 C1            -0.0167     1.3781     0.0096 C.2     
   2 C2             0.0021    -0.0041     0.0020 C.2     
   3 C3             1.2588    -0.6765    -0.0139 C.2     
   4 C4             2.4315     0.0676    -0.0214 C.2     
   5 C5             2.3575     1.4755    -0.0131 C.2     
   6 N6             1.1649     2.0908     0.0022 N.am    
   7 C7            -1.3431    -0.5748     0.0126 C.2     
   8 C8            -2.3221     0.3256     0.0274 C.2     
   9 S9            -1.6795     1.9561     0.0358 S.3     
  10 O10            3.3824     2.1375    -0.0192 O.2     
  11 C11            3.7476    -0.6116    -0.0375 C.ar    
  12 C12            4.5931    -0.4742    -1.1382 C.ar    
  13 C13            5.8180    -1.1095    -1.1473 C.ar    
  14 C14            6.2080    -1.8815    -0.0675 C.ar    
  15 C15            5.3737    -2.0216     1.0272 C.ar    
  16 C16            4.1489    -1.3866     1.0505 C.ar    
  17 C17           -1.5956    -2.0353     0.0069 C.ar    
  18 C18           -1.7277    -2.7208    -1.2042 C.ar    
  19 C19           -1.9631    -4.0858    -1.2010 C.ar    
  20 C20           -2.0675    -4.7705    -0.0038 C.ar    
  21 C21           -1.9380    -4.0998     1.1982 C.ar    
  22 C22           -1.6970    -2.7354     1.2121 C.ar    
  23 O23           -1.5645    -2.0789     2.3946 O.3     
  24 C24           -1.6800    -2.8591     3.5862 C.3     
  25 O25           -1.6260    -2.0497    -2.3815 O.3     
  26 O26            1.3089    -2.0290    -0.0212 O.3     
  27 H27            1.1328     3.0602     0.0077 H       
  28 H28           -3.3746     0.0836     0.0362 H       
  29 H29            4.2896     0.1279    -1.9818 H       
  30 H30            6.4734    -1.0041    -1.9992 H       
  31 H31            7.1675    -2.3770    -0.0794 H       
  32 H32            5.6837    -2.6256     1.8671 H       
  33 H33            3.5004    -1.4931     1.9075 H       
  34 H34           -2.0658    -4.6169    -2.1358 H       
  35 H35           -2.2514    -5.8347    -0.0080 H       
  36 H36           -2.0211    -4.6416     2.1288 H       
  37 H37           -2.6637    -3.3274     3.6199 H       
  38 H38           -0.9099    -3.6304     3.5916 H       
  39 H39           -1.5546    -2.2144     4.4562 H       
  40 H40           -0.7260    -2.0054    -2.7324 H       
  41 H41            2.2062    -2.3893    -0.0320 H       
@<TRIPOS>BOND
   1    1    2 2
   2    1    6 1
   3    1    9 1
   4    2    3 1
   5    2    7 1
   6    3    4 2
   7    3   26 1
   8    4    5 1
   9    4   11 1
  10    5    6 am
  11    5   10 2
  12    6   27 1
  13    7    8 2
  14    7   17 1
  15    8    9 1
  16    8   28 1
  17   11   12 ar
  18   11   16 ar
  19   12   13 ar
  20   12   29 1
  21   13   14 ar
  22   13   30 1
  23   14   15 ar
  24   14   31 1
  25   15   16 ar
  26   15   32 1
  27   16   33 1
  28   17   18 ar
  29   17   22 ar
  30   18   19 ar
  31   18   25 1
  32   19   20 ar
  33   19   34 1
  34   20   21 ar
  35   20   35 1
  36   21   22 ar
  37   21   36 1
  38   22   23 1
  39   23   24 1
  40   24   37 1
  41   24   38 1
  42   24   39 1
  43   25   40 1
  44   26   41 1

#	End of record

