#	Name: ASD01151082
#	Creating user name:	WinNT
#	Creation time:	15. 06. 2019 19:05

#	Modifying user name:	WinNT
#	Modification time:	15. 06. 2019 19:05

#	Program:	/corina/corina34_cracker 3.40 0067  02.08.2006

@<TRIPOS>MOLECULE
ASD01151082
  41   42    0    0    0
SMALL
NO_CHARGES


@<TRIPOS>ATOM
   1 C1            -0.0159     1.3209     0.0093 C.2     
   2 C2             0.0021    -0.0041     0.0020 C.2     
   3 C3            -1.3202    -0.5914     0.0120 C.2     
   4 C4            -2.3191     0.3493     0.0270 C.2     
   5 S5            -1.6638     1.9227     0.0359 S.3     
   6 C6             1.2131     2.1930     0.0023 C.3     
   7 C7             1.2711    -0.8167    -0.0154 C.3     
   8 C8             1.7150    -1.1000     1.4211 C.3     
   9 C9            -1.5660    -2.0348     0.0062 C.2     
  10 O10           -1.6575    -2.6404     1.0572 O.2     
  11 O11           -1.6910    -2.6930    -1.1645 O.3     
  12 C12           -1.9337    -4.1228    -1.0942 C.3     
  13 N13           -3.6734     0.0600     0.0385 N.am    
  14 C14           -4.5761     1.0606     0.0528 C.2     
  15 O15           -4.2016     2.2171     0.0557 O.2     
  16 C16           -6.0214     0.7519     0.0651 C.ar    
  17 C17           -6.9591     1.7860     0.0800 C.ar    
  18 C18           -8.3066     1.4908     0.0915 C.ar    
  19 C19           -8.7295     0.1734     0.0882 C.ar    
  20 C20           -7.8054    -0.8563     0.0735 C.ar    
  21 C21           -6.4549    -0.5751     0.0561 C.ar    
  22 C22          -10.2032    -0.1414     0.1013 C.3     
  23 H23            1.4996     2.4087    -1.0270 H       
  24 H24            0.9994     3.1263     0.5232 H       
  25 H25            2.0293     1.6746     0.5055 H       
  26 H26            1.0919    -1.7592    -0.5329 H       
  27 H27            2.0518    -0.2603    -0.5340 H       
  28 H28            0.9343    -1.6565     1.9396 H       
  29 H29            2.6329    -1.6878     1.4085 H       
  30 H30            1.8942    -0.1576     1.9385 H       
  31 H31           -2.0139    -4.5278    -2.1030 H       
  32 H32           -1.1075    -4.6064    -0.5731 H       
  33 H33           -2.8621    -4.3077    -0.5537 H       
  34 H34           -3.9722    -0.8628     0.0362 H       
  35 H35           -6.6303     2.8147     0.0829 H       
  36 H36           -9.0331     2.2899     0.1034 H       
  37 H37           -8.1421    -1.8825     0.0710 H       
  38 H38           -5.7347    -1.3797     0.0442 H       
  39 H39          -10.5688    -0.2114    -0.9232 H       
  40 H40          -10.3674    -1.0906     0.6114 H       
  41 H41          -10.7392     0.6501     0.6251 H       
@<TRIPOS>BOND
   1    1    2 2
   2    1    6 1
   3    1    5 1
   4    2    3 1
   5    2    7 1
   6    3    4 2
   7    3    9 1
   8    4    5 1
   9    4   13 1
  10    6   23 1
  11    6   24 1
  12    6   25 1
  13    7    8 1
  14    7   26 1
  15    7   27 1
  16    8   28 1
  17    8   29 1
  18    8   30 1
  19    9   10 2
  20    9   11 1
  21   11   12 1
  22   12   31 1
  23   12   32 1
  24   12   33 1
  25   13   14 am
  26   13   34 1
  27   14   15 2
  28   14   16 1
  29   16   17 ar
  30   16   21 ar
  31   17   18 ar
  32   17   35 1
  33   18   19 ar
  34   18   36 1
  35   19   20 ar
  36   19   22 1
  37   20   21 ar
  38   20   37 1
  39   21   38 1
  40   22   39 1
  41   22   40 1
  42   22   41 1

#	End of record

