#	Name: ASD03731884
#	Creating user name:	WinNT
#	Creation time:	15. 06. 2019 20:46

#	Modifying user name:	WinNT
#	Modification time:	15. 06. 2019 20:46

#	Program:	/corina/corina34_cracker 3.40 0067  02.08.2006

@<TRIPOS>MOLECULE
ASD03731884
  28   29    0    0    0
SMALL
NO_CHARGES


@<TRIPOS>ATOM
   1 C1            -0.0035    -0.0031     0.1473 C.1     
   2 C2            -0.0214     1.4285     0.1184 C.ar    
   3 C3            -0.0044     2.1064    -1.1064 C.ar    
   4 C4            -0.0217     3.4865    -1.1289 C.ar    
   5 C5            -0.0555     4.2018     0.0605 C.ar    
   6 C6            -0.0721     3.5317     1.2807 C.ar    
   7 C7            -0.0618     2.1537     1.3132 C.ar    
   8 N8             0.0107    -1.1387     0.1703 N.1     
   9 O9            -0.0720     5.5592     0.0337 O.3     
  10 C10            1.1156     6.2140     0.1304 C.ar    
  11 C11            1.1560     7.6024     0.0379 C.ar    
  12 C12            2.3675     8.2661     0.1374 C.ar    
  13 C13            3.5352     7.5500     0.3280 C.ar    
  14 C14            3.4963     6.1694     0.4201 C.ar    
  15 C15            2.2873     5.5011     0.3271 C.ar    
  16 F16            4.6392     5.4734     0.6058 F       
  17 O17            0.0072     8.3063    -0.1504 O.3     
  18 C18            0.1241     9.7279    -0.2360 C.3     
  19 F19           -0.1045     4.2332     2.4349 F       
  20 F20            0.0294     1.4111    -2.2643 F       
  21 H21           -0.0086     4.0106    -2.0732 H       
  22 H22           -0.0800     1.6349     2.2603 H       
  23 H23            2.4005     9.3432     0.0659 H       
  24 H24            4.4792     8.0689     0.4047 H       
  25 H25            2.2581     4.4242     0.4036 H       
  26 H26            0.5556    10.1133     0.6878 H       
  27 H27            0.7688     9.9896    -1.0750 H       
  28 H28           -0.8630    10.1652    -0.3861 H       
@<TRIPOS>BOND
   1    1    2 1
   2    1    8 3
   3    2    3 ar
   4    2    7 ar
   5    3    4 ar
   6    3   20 1
   7    4    5 ar
   8    4   21 1
   9    5    6 ar
  10    5    9 1
  11    6    7 ar
  12    6   19 1
  13    7   22 1
  14    9   10 1
  15   10   11 ar
  16   10   15 ar
  17   11   12 ar
  18   11   17 1
  19   12   13 ar
  20   12   23 1
  21   13   14 ar
  22   13   24 1
  23   14   15 ar
  24   14   16 1
  25   15   25 1
  26   17   18 1
  27   18   26 1
  28   18   27 1
  29   18   28 1

#	End of record

