#	Name: ASD01908336
#	Creating user name:	WinNT
#	Creation time:	15. 06. 2019 19:54

#	Modifying user name:	WinNT
#	Modification time:	15. 06. 2019 19:54

#	Program:	/corina/corina34_cracker 3.40 0067  02.08.2006

@<TRIPOS>MOLECULE
ASD01908336
  43   46    0    0    0
SMALL
NO_CHARGES


@<TRIPOS>ATOM
   1 C1            -1.2600     3.4498     0.0188 C.ar    
   2 C2            -0.0648     4.1624     0.0248 C.ar    
   3 C3            -0.1059     5.5447     0.0186 C.ar    
   4 C4            -1.3456     6.1709     0.0066 C.ar    
   5 C5            -2.4918     5.4017     0.0012 C.ar    
   6 N6            -2.4226     4.0839     0.0073 N.ar    
   7 N7            -1.2335     2.0599     0.0191 N.pl3   
   8 S8            -4.1399    -0.5241     0.2162 S.3     
   9 C9            -4.6385     1.1534     0.4169 C.2     
  10 N10           -3.5912     1.9239     0.3331 N.2     
  11 C11           -2.4310     1.3348     0.1267 C.2     
  12 C12           -2.4675    -0.0017     0.0266 C.2     
  13 N13           -8.1951     1.6283     0.9442 N.pl3   
  14 N14           -7.7386     2.9511     0.9846 N.2     
  15 C15           -6.4446     2.9509     0.8065 C.2     
  16 C16           -6.0255     1.6140     0.6445 C.2     
  17 C17           -7.1358     0.8219     0.7355 C.2     
  18 C18           -9.5849     1.1946     1.1071 C.3     
  19 C19          -10.1294     1.7308     2.4060 C.ar    
  20 C20          -10.7533     2.9643     2.4361 C.ar    
  21 C21          -11.2532     3.4580     3.6255 C.ar    
  22 C22          -11.1289     2.7150     4.7904 C.ar    
  23 C23          -10.5025     1.4776     4.7576 C.ar    
  24 C24          -10.0093     0.9858     3.5646 C.ar    
  25 O25          -11.6195     3.1987     5.9618 O.3     
  26 C26          -11.4560     2.3796     7.1212 C.3     
  27 H27            0.8821     3.6430     0.0344 H       
  28 H28            0.8054     6.1242     0.0233 H       
  29 H29           -1.4121     7.2489     0.0019 H       
  30 H30           -3.4577     5.8847    -0.0077 H       
  31 H31           -0.3876     1.5909    -0.0551 H       
  32 H32           -1.6180    -0.6472    -0.1410 H       
  33 H33           -5.8071     3.8224     0.7863 H       
  34 H34           -7.1598    -0.2549     0.6550 H       
  35 H35          -10.1832     1.5733     0.2785 H       
  36 H36           -9.6268     0.1055     1.1176 H       
  37 H37          -10.8495     3.5425     1.5289 H       
  38 H38          -11.7401     4.4218     3.6485 H       
  39 H39          -10.4045     0.8973     5.6632 H       
  40 H40           -9.5258     0.0205     3.5377 H       
  41 H41          -11.9582     1.4248     6.9653 H       
  42 H42          -10.3942     2.2071     7.2974 H       
  43 H43          -11.8907     2.8820     7.9854 H       
@<TRIPOS>BOND
   1    1    2 ar
   2    1    6 ar
   3    1    7 1
   4    2    3 ar
   5    2   27 1
   6    3    4 ar
   7    3   28 1
   8    4    5 ar
   9    4   29 1
  10    5    6 ar
  11    5   30 1
  12    7   11 1
  13    7   31 1
  14    8    9 1
  15    8   12 1
  16    9   10 2
  17    9   16 1
  18   10   11 1
  19   11   12 2
  20   12   32 1
  21   13   14 1
  22   13   17 1
  23   13   18 1
  24   14   15 2
  25   15   16 1
  26   15   33 1
  27   16   17 2
  28   17   34 1
  29   18   19 1
  30   18   35 1
  31   18   36 1
  32   19   20 ar
  33   19   24 ar
  34   20   21 ar
  35   20   37 1
  36   21   22 ar
  37   21   38 1
  38   22   23 ar
  39   22   25 1
  40   23   24 ar
  41   23   39 1
  42   24   40 1
  43   25   26 1
  44   26   41 1
  45   26   42 1
  46   26   43 1

#	End of record

