#	Name: ASD01913804
#	Creating user name:	WinNT
#	Creation time:	15. 06. 2019 20:02

#	Modifying user name:	WinNT
#	Modification time:	15. 06. 2019 20:02

#	Program:	/corina/corina34_cracker 3.40 0067  02.08.2006

@<TRIPOS>MOLECULE
ASD01913804
  36   38    0    0    0
SMALL
NO_CHARGES


@<TRIPOS>ATOM
   1 N1            -0.0100     1.3014    -0.1668 N.ar    
   2 C2            -0.0015     0.0034     0.0654 C.ar    
   3 N3             1.1156    -0.6636     0.2796 N.ar    
   4 C4             2.2863    -0.0509     0.2702 C.ar    
   5 C5             2.3267     1.3284     0.0276 C.ar    
   6 C6             1.1144     1.9949    -0.1946 C.ar    
   7 C7             3.5711     2.0368     0.0079 C.1     
   8 C8             4.5913     2.6175    -0.0082 C.1     
   9 C9             5.8357     3.3258    -0.0280 C.ar    
  10 C10            5.8650     4.7071    -0.2718 C.ar    
  11 C11            8.2443     4.6049    -0.0488 C.ar    
  12 N12            8.1835     3.3024     0.1842 N.ar    
  13 C13            7.0380     2.6531     0.2010 C.ar    
  14 C14            7.0890     5.3454    -0.2803 C.ar    
  15 N15            9.4819     5.2439    -0.0549 N.am    
  16 C16            9.6742     6.5701    -0.0483 C.2     
  17 O17           10.9625     6.9300    -0.0566 O.3     
  18 C18           11.7999     5.7378    -0.0709 C.3     
  19 C19           10.7909     4.5732    -0.0635 C.3     
  20 C20           12.6597     5.7013    -1.3360 C.3     
  21 C21           12.6804     5.6857     1.1793 C.3     
  22 O22            8.7617     7.3723    -0.0362 O.2     
  23 H23           -0.9401    -0.5306     0.0810 H       
  24 H24            3.1968    -0.6042     0.4468 H       
  25 H25            1.0993     3.0577    -0.3857 H       
  26 H26            4.9527     5.2573    -0.4488 H       
  27 H27            7.0281     1.5905     0.3939 H       
  28 H28            7.1493     6.4078    -0.4649 H       
  29 H29           10.9196     3.9608     0.8290 H       
  30 H30           10.8986     3.9675    -0.9633 H       
  31 H31           13.3177     6.5701    -1.3532 H       
  32 H32           13.2594     4.7912    -1.3416 H       
  33 H33           12.0145     5.7168    -2.2144 H       
  34 H34           12.0497     5.6902     2.0683 H       
  35 H35           13.2800     4.7756     1.1637 H       
  36 H36           13.3387     6.5543     1.1965 H       
@<TRIPOS>BOND
   1    1    2 ar
   2    1    6 ar
   3    2    3 ar
   4    2   23 1
   5    3    4 ar
   6    4    5 ar
   7    4   24 1
   8    5    6 ar
   9    5    7 1
  10    6   25 1
  11    7    8 3
  12    8    9 1
  13    9   10 ar
  14    9   13 ar
  15   10   14 ar
  16   10   26 1
  17   11   12 ar
  18   11   15 1
  19   11   14 ar
  20   12   13 ar
  21   13   27 1
  22   14   28 1
  23   15   16 am
  24   15   19 1
  25   16   17 1
  26   16   22 2
  27   17   18 1
  28   18   19 1
  29   18   20 1
  30   18   21 1
  31   19   29 1
  32   19   30 1
  33   20   31 1
  34   20   32 1
  35   20   33 1
  36   21   34 1
  37   21   35 1
  38   21   36 1

#	End of record

