#	Name: ASD04882455
#	Creating user name:	WinNT
#	Creation time:	15. 06. 2019 20:54

#	Modifying user name:	WinNT
#	Modification time:	15. 06. 2019 20:54

#	Program:	/corina/corina34_cracker 3.40 0067  02.08.2006

@<TRIPOS>MOLECULE
ASD04882455
  71   74    0    0    0
SMALL
NO_CHARGES


@<TRIPOS>ATOM
   1 C1            -0.0101     1.3826     0.0307 C.ar    
   2 C2             0.0214    -0.0103     0.1404 C.ar    
   3 C3            -1.1647    -0.7341     0.1694 C.ar    
   4 C4            -2.3754    -0.0818     0.0903 C.ar    
   5 C5            -2.4142     1.3107    -0.0195 C.ar    
   6 C6            -1.2226     2.0415    -0.0437 C.ar    
   7 N7             1.2438    -0.6744     0.2202 N.3     
   8 C8             1.3499    -1.4334     1.4741 C.3     
   9 C9             1.4434    -1.5517    -0.9417 C.3     
  10 C10            2.8273    -2.1999    -0.8563 C.3     
  11 N11            2.9333    -2.9590     0.3976 N.3     
  12 C12            2.7337    -2.0816     1.5595 C.3     
  13 C13           -3.7109     2.0092    -0.1042 C.2     
  14 O14           -3.7437     3.2210    -0.1997 O.2     
  15 N15           -4.8592     1.3042    -0.0757 N.am    
  16 N16            1.1859     2.1105     0.0021 N.am    
  17 S17            1.2698     3.5945     0.7323 S.o2    
  18 O18            2.6350     3.9689     0.6095 O.2     
  19 C19            4.1586    -3.6247     0.4776 C.ar    
  20 O20            0.2433     4.3517     0.1062 O.2     
  21 C21            4.1929    -5.0089     0.5867 C.ar    
  22 C22            5.4064    -5.6640     0.6651 C.ar    
  23 C23            6.5860    -4.9434     0.6357 C.ar    
  24 C24            6.5555    -3.5649     0.5272 C.ar    
  25 C25            5.3460    -2.9041     0.4426 C.ar    
  26 C26            2.9077    -5.7950     0.6198 C.3     
  27 C27           -6.1469     1.9978    -0.1598 C.3     
  28 C28           -7.2823     0.9736    -0.1061 C.3     
  29 C29           -8.6271     1.6980    -0.1939 C.3     
  30 N30           -9.7142     0.7174    -0.1424 N.am    
  31 C31          -10.3568     0.2575     1.0943 C.3     
  32 C32          -11.0990    -1.0429     0.7143 C.3     
  33 C33          -11.3414    -0.8368    -0.7989 C.3     
  34 C34          -10.2553     0.1275    -1.2223 C.2     
  35 O35           -9.9170     0.3329    -2.3687 O.2     
  36 C36            0.8526     3.2692     2.4675 C.3     
  37 H37           -1.1371    -1.8104     0.2539 H       
  38 H38           -3.2953    -0.6472     0.1128 H       
  39 H39           -1.2493     3.1178    -0.1285 H       
  40 H40            1.2110    -0.7599     2.3198 H       
  41 H41            0.5834    -2.2081     1.4962 H       
  42 H42            0.6781    -2.3278    -0.9471 H       
  43 H43            1.3728    -0.9645    -1.8572 H       
  44 H44            2.9661    -2.8735    -1.7020 H       
  45 H45            3.5937    -1.4252    -0.8783 H       
  46 H46            3.4991    -1.3056     1.5649 H       
  47 H47            2.8044    -2.6689     2.4750 H       
  48 H48           -4.8331     0.3375     0.0005 H       
  49 H49            1.9652     1.7455    -0.4455 H       
  50 H50            5.4338    -6.7403     0.7499 H       
  51 H51            7.5335    -5.4581     0.6980 H       
  52 H52            7.4787    -3.0051     0.5049 H       
  53 H53            5.3228    -1.8277     0.3575 H       
  54 H54            2.6204    -6.0647    -0.3965 H       
  55 H55            3.0508    -6.7006     1.2093 H       
  56 H56            2.1222    -5.1884     1.0705 H       
  57 H57           -6.2420     2.6900     0.6768 H       
  58 H58           -6.2009     2.5513    -1.0973 H       
  59 H59           -7.1871     0.2814    -0.9427 H       
  60 H60           -7.2283     0.4202     0.8314 H       
  61 H61           -8.7222     2.3902     0.6427 H       
  62 H62           -8.6811     2.2515    -1.1314 H       
  63 H63           -9.6049     0.0537     1.8567 H       
  64 H64          -11.0647     1.0051     1.4521 H       
  65 H65          -10.4722    -1.9164     0.8935 H       
  66 H66          -12.0430    -1.1249     1.2529 H       
  67 H67          -11.2454    -1.7822    -1.3329 H       
  68 H68          -12.3242    -0.3982    -0.9716 H       
  69 H69            1.5721     2.5672     2.8888 H       
  70 H70            0.8837     4.2025     3.0297 H       
  71 H71           -0.1487     2.8426     2.5266 H       
@<TRIPOS>BOND
   1    1    2 ar
   2    1   16 1
   3    1    6 ar
   4    2    3 ar
   5    2    7 1
   6    3    4 ar
   7    3   37 1
   8    4    5 ar
   9    4   38 1
  10    5    6 ar
  11    5   13 1
  12    6   39 1
  13    7    8 1
  14    7    9 1
  15    8   12 1
  16    8   40 1
  17    8   41 1
  18    9   10 1
  19    9   42 1
  20    9   43 1
  21   10   11 1
  22   10   44 1
  23   10   45 1
  24   11   12 1
  25   11   19 1
  26   12   46 1
  27   12   47 1
  28   13   14 2
  29   13   15 am
  30   15   27 1
  31   15   48 1
  32   16   17 am
  33   16   49 1
  34   17   18 2
  35   17   20 2
  36   17   36 1
  37   19   21 ar
  38   19   25 ar
  39   21   22 ar
  40   21   26 1
  41   22   23 ar
  42   22   50 1
  43   23   24 ar
  44   23   51 1
  45   24   25 ar
  46   24   52 1
  47   25   53 1
  48   26   54 1
  49   26   55 1
  50   26   56 1
  51   27   28 1
  52   27   57 1
  53   27   58 1
  54   28   29 1
  55   28   59 1
  56   28   60 1
  57   29   30 1
  58   29   61 1
  59   29   62 1
  60   30   31 1
  61   30   34 am
  62   31   32 1
  63   31   63 1
  64   31   64 1
  65   32   33 1
  66   32   65 1
  67   32   66 1
  68   33   34 1
  69   33   67 1
  70   33   68 1
  71   34   35 2
  72   36   69 1
  73   36   70 1
  74   36   71 1

#	End of record

