#	Name: ASD01916356
#	Creating user name:	WinNT
#	Creation time:	15. 06. 2019 20:07

#	Modifying user name:	WinNT
#	Modification time:	15. 06. 2019 20:07

#	Program:	/corina/corina34_cracker 3.40 0067  02.08.2006

@<TRIPOS>MOLECULE
ASD01916356
  38   40    0    0    0
SMALL
NO_CHARGES


@<TRIPOS>ATOM
   1 C1            -0.0289     1.5460    -0.0149 C.3     
   2 C2            -0.0165     0.0118    -0.0285 C.3     
   3 C3             0.6153    -0.4810    -1.3283 C.3     
   4 C4             1.9766     0.1213    -1.5321 C.ar    
   5 C5             2.3520     1.3146    -0.9049 C.ar    
   6 C6             1.4133     2.0120    -0.0149 C.2     
   7 O7             1.7789     2.9268     0.6928 O.2     
   8 C8             0.7973    -0.5021     1.1609 C.3     
   9 C9            -1.4510    -0.5107     0.0714 C.3     
  10 N10            2.8511    -0.4790    -2.3209 N.ar    
  11 C11            4.0572     0.0379    -2.5165 C.ar    
  12 N12            4.4460     1.1685    -1.9403 N.ar    
  13 C13            3.6338     1.8307    -1.1368 C.ar    
  14 N14            4.9382    -0.6233    -3.3475 N.pl3   
  15 C15            6.1663    -0.0447    -3.6629 C.ar    
  16 C16            7.2891    -0.8488    -3.8334 C.ar    
  17 C17            8.5037    -0.2807    -4.1454 C.ar    
  18 C18            8.6082     1.1057    -4.2910 C.ar    
  19 C19            7.4782     1.9105    -4.1190 C.ar    
  20 C20            6.2656     1.3352    -3.8123 C.ar    
  21 C21            9.8700     1.7002    -4.6150 C.1     
  22 N22           10.8710     2.1718    -4.8721 N.1     
  23 H23           -0.5390     1.9201    -0.9025 H       
  24 H24           -0.5338     1.9043     0.8822 H       
  25 H25            0.7064    -1.5666    -1.2922 H       
  26 H26           -0.0266    -0.2048    -2.1648 H       
  27 H27            0.3462    -0.1506     2.0888 H       
  28 H28            0.8061    -1.5921     1.1513 H       
  29 H29            1.8193    -0.1299     1.0899 H       
  30 H30           -2.0309    -0.1444    -0.7758 H       
  31 H31           -1.4423    -1.6006     0.0617 H       
  32 H32           -1.9020    -0.1591     0.9994 H       
  33 H33            3.9508     2.7508    -0.6684 H       
  34 H34            4.7028    -1.4908    -3.7122 H       
  35 H35            7.2077    -1.9198    -3.7204 H       
  36 H36            9.3748    -0.9053    -4.2772 H       
  37 H37            7.5554     2.9819    -4.2307 H       
  38 H38            5.3921     1.9563    -3.6796 H       
@<TRIPOS>BOND
   1    1    2 1
   2    1    6 1
   3    1   23 1
   4    1   24 1
   5    2    3 1
   6    2    8 1
   7    2    9 1
   8    3    4 1
   9    3   25 1
  10    3   26 1
  11    4    5 ar
  12    4   10 ar
  13    5    6 1
  14    5   13 ar
  15    6    7 2
  16    8   27 1
  17    8   28 1
  18    8   29 1
  19    9   30 1
  20    9   31 1
  21    9   32 1
  22   10   11 ar
  23   11   12 ar
  24   11   14 1
  25   12   13 ar
  26   13   33 1
  27   14   15 1
  28   14   34 1
  29   15   16 ar
  30   15   20 ar
  31   16   17 ar
  32   16   35 1
  33   17   18 ar
  34   17   36 1
  35   18   19 ar
  36   18   21 1
  37   19   20 ar
  38   19   37 1
  39   20   38 1
  40   21   22 3

#	End of record

