#	Name: ASD01881873
#	Creating user name:	WinNT
#	Creation time:	15. 06. 2019 19:43

#	Modifying user name:	WinNT
#	Modification time:	15. 06. 2019 19:43

#	Program:	/corina/corina34_cracker 3.40 0067  02.08.2006

@<TRIPOS>MOLECULE
ASD01881873
  43   46    0    0    0
SMALL
NO_CHARGES


@<TRIPOS>ATOM
   1 C1            -0.0161     1.3337     0.0094 C.2     
   2 N2             0.0021    -0.0041     0.0020 N.am    
   3 C3             1.2613    -0.4841    -0.0126 C.2     
   4 C4             2.1640     0.7337    -0.0147 C.3     
   5 N5             1.2200     1.8645     0.0004 N.am    
   6 O6            -1.0354     1.9955     0.0180 O.2     
   7 O7             1.6013    -1.6477    -0.0215 O.2     
   8 C8            -1.1986    -0.8435     0.0097 C.3     
   9 C9             1.5609     3.2893     0.0041 C.3     
  10 C10            1.6936     3.7782     1.4478 C.3     
  11 O11            2.7993     3.1233     2.0727 O.3     
  12 N12            4.0499     4.2515     7.2850 N.pl3   
  13 N13            5.1462     3.3808     7.3728 N.2     
  14 N14            5.3071     2.7801     6.2467 N.2     
  15 C15            4.3740     3.1850     5.3621 C.ar    
  16 C16            3.5559     4.1294     6.0062 C.ar    
  17 C17            4.1112     2.8492     4.0269 C.ar    
  18 C18            3.0570     3.4474     3.3681 C.ar    
  19 C19            2.2550     4.3812     4.0198 C.ar    
  20 C20            2.5001     4.7194     5.3208 C.ar    
  21 C21            3.5294     5.1158     8.3472 C.3     
  22 C22            4.2246     6.4772     8.2835 C.3     
  23 C23            3.7349     7.5660     9.2404 C.3     
  24 C24            5.0852     6.8877     9.4800 C.3     
  25 Br25           5.1949     1.5827     3.1340 Br      
  26 H26            2.7924     0.7467     0.8759 H       
  27 H27            2.7753     0.7564    -0.9169 H       
  28 H28           -1.5068    -1.0461    -1.0159 H       
  29 H29           -0.9813    -1.7838     0.5163 H       
  30 H30           -2.0010    -0.3250     0.5345 H       
  31 H31            2.5060     3.4381    -0.5182 H       
  32 H32            0.7749     3.8522    -0.4994 H       
  33 H33            1.8593     4.8555     1.4528 H       
  34 H34            0.7790     3.5487     1.9946 H       
  35 H35            1.4331     4.8423     3.4922 H       
  36 H36            1.8725     5.4448     5.8173 H       
  37 H37            2.4559     5.2494     8.2136 H       
  38 H38            3.7204     4.6553     9.3165 H       
  39 H39            4.5569     6.7895     7.2934 H       
  40 H40            3.7453     8.5946     8.8800 H       
  41 H41            2.9175     7.3123     9.9153 H       
  42 H42            5.1562     6.1878    10.3126 H       
  43 H43            5.9840     7.4701     9.2773 H       
@<TRIPOS>BOND
   1    1    2 am
   2    1    5 am
   3    1    6 2
   4    2    3 am
   5    2    8 1
   6    3    4 1
   7    3    7 2
   8    4    5 1
   9    4   26 1
  10    4   27 1
  11    5    9 1
  12    8   28 1
  13    8   29 1
  14    8   30 1
  15    9   10 1
  16    9   31 1
  17    9   32 1
  18   10   11 1
  19   10   33 1
  20   10   34 1
  21   11   18 1
  22   12   13 1
  23   12   16 1
  24   12   21 1
  25   13   14 2
  26   14   15 1
  27   15   16 ar
  28   15   17 ar
  29   16   20 ar
  30   17   18 ar
  31   17   25 1
  32   18   19 ar
  33   19   20 ar
  34   19   35 1
  35   20   36 1
  36   21   22 1
  37   21   37 1
  38   21   38 1
  39   22   23 1
  40   22   24 1
  41   22   39 1
  42   23   24 1
  43   23   40 1
  44   23   41 1
  45   24   42 1
  46   24   43 1

#	End of record

