#	Name: ASD01200254
#	Creating user name:	WinNT
#	Creation time:	15. 06. 2019 19:08

#	Modifying user name:	WinNT
#	Modification time:	15. 06. 2019 19:08

#	Program:	/corina/corina34_cracker 3.40 0067  02.08.2006

@<TRIPOS>MOLECULE
ASD01200254
  48   49    0    0    0
SMALL
NO_CHARGES


@<TRIPOS>ATOM
   1 C1            -0.0184     1.5028     0.0103 C.2     
   2 C2             0.0021    -0.0041     0.0020 C.3     
   3 C3             1.4513    -0.4944    -0.0145 C.3     
   4 O4             1.0232     2.1232     0.0037 O.2     
   5 N5            -1.1946     2.1607     0.0195 N.am    
   6 C6            -0.6897    -0.5226     1.2364 C.ar    
   7 C7            -1.8040    -1.3319     1.1154 C.ar    
   8 C8            -2.4388    -1.8084     2.2479 C.ar    
   9 C9            -1.9577    -1.4743     3.5028 C.ar    
  10 C10           -0.8428    -0.6646     3.6220 C.ar    
  11 C11           -0.2063    -0.1935     2.4888 C.ar    
  12 Cl12          -2.7538    -2.0711     4.9254 Cl      
  13 Cl13          -3.8384    -2.8243     2.0965 Cl      
  14 C14            2.1173    -0.0733    -1.3260 C.3     
  15 C15            3.5989    -0.4536    -1.2907 C.3     
  16 C16            4.3448     0.2995    -2.3940 C.3     
  17 C17            3.8857     1.7587    -2.4166 C.3     
  18 C18            3.1241     2.0340    -3.7147 C.3     
  19 C19            1.7228     1.4267    -3.6213 C.3     
  20 C20            1.8109    -0.0895    -3.8054 C.3     
  21 C21            1.4355    -0.7859    -2.4959 C.3     
  22 C22           -1.2129     3.5083     0.0269 C.2     
  23 N23           -2.3891     4.1663     0.0360 N.am    
  24 O24           -0.1687     4.1303     0.0253 O.2     
  25 H25           -0.5153    -0.3696    -0.8850 H       
  26 H26            1.9924    -0.0570     0.8246 H       
  27 H27            1.4682    -1.5810     0.0691 H       
  28 H28           -2.0280     1.6644     0.0207 H       
  29 H29           -2.1789    -1.5918     0.1364 H       
  30 H30           -0.4671    -0.4037     4.6003 H       
  31 H31            0.6667     0.4355     2.5822 H       
  32 H32            2.0219     1.0051    -1.4520 H       
  33 H33            4.0194    -0.1875    -0.3209 H       
  34 H34            3.7025    -1.5270    -1.4495 H       
  35 H35            5.4168     0.2590    -2.2006 H       
  36 H36            4.1318    -0.1633    -3.3576 H       
  37 H37            3.2321     1.9472    -1.5649 H       
  38 H38            4.7549     2.4139    -2.3595 H       
  39 H39            3.0442     3.1102    -3.8680 H       
  40 H40            3.6592     1.5862    -4.5521 H       
  41 H41            1.2946     1.6497    -2.6440 H       
  42 H42            1.0901     1.8512    -4.4007 H       
  43 H43            1.1234    -0.4003    -4.5921 H       
  44 H44            2.8286    -0.3631    -4.0835 H       
  45 H45            1.7638    -1.8247    -2.5298 H       
  46 H46            0.3543    -0.7506    -2.3626 H       
  47 H47           -3.2225     3.6699     0.0373 H       
  48 H48           -2.4022     5.1362     0.0414 H       
@<TRIPOS>BOND
   1    1    2 1
   2    1    4 2
   3    1    5 am
   4    2    3 1
   5    2    6 1
   6    2   25 1
   7    3   14 1
   8    3   26 1
   9    3   27 1
  10    5   22 am
  11    5   28 1
  12    6    7 ar
  13    6   11 ar
  14    7    8 ar
  15    7   29 1
  16    8    9 ar
  17    8   13 1
  18    9   10 ar
  19    9   12 1
  20   10   11 ar
  21   10   30 1
  22   11   31 1
  23   14   15 1
  24   14   21 1
  25   14   32 1
  26   15   16 1
  27   15   33 1
  28   15   34 1
  29   16   17 1
  30   16   35 1
  31   16   36 1
  32   17   18 1
  33   17   37 1
  34   17   38 1
  35   18   19 1
  36   18   39 1
  37   18   40 1
  38   19   20 1
  39   19   41 1
  40   19   42 1
  41   20   21 1
  42   20   43 1
  43   20   44 1
  44   21   45 1
  45   21   46 1
  46   22   23 am
  47   22   24 2
  48   23   47 1
  49   23   48 1

#	End of record

