#	Name: ASD03540233
#	Creating user name:	WinNT
#	Creation time:	15. 06. 2019 20:42

#	Modifying user name:	WinNT
#	Modification time:	15. 06. 2019 20:42

#	Program:	/corina/corina34_cracker 3.40 0067  02.08.2006

@<TRIPOS>MOLECULE
ASD03540233
  53   57    0    0    0
SMALL
NO_CHARGES


@<TRIPOS>ATOM
   1 C1             0.0067     1.3306    -0.1343 C.2     
   2 N2             0.0346    -0.0097    -0.1485 N.am    
   3 C3             1.2230    -0.7061    -0.0211 C.2     
   4 C4             2.4097     0.0032     0.1244 C.2     
   5 C5             2.3259     1.4811     0.1348 C.2     
   6 N6             1.1212     2.0667     0.0033 N.am    
   7 C7             3.5286    -0.8233     0.2421 C.2     
   8 C8             3.2528    -2.1383     0.1933 C.2     
   9 S9             1.5277    -2.3870    -0.0080 S.3     
  10 C10            4.2470    -3.2068     0.2929 C.2     
  11 O11            5.4239    -2.9316     0.4309 O.2     
  12 O12            3.8586    -4.4974     0.2315 O.3     
  13 O13            3.3307     2.1561     0.2591 O.2     
  14 O14           -1.0618     1.8980    -0.2548 O.2     
  15 C15            1.0243     3.5285     0.0113 C.3     
  16 C16            0.8845     4.0149     1.4307 C.ar    
  17 C17            0.7541     3.1223     2.4502 C.ar    
  18 C18            0.6238     3.5533     3.7688 C.ar    
  19 C19            0.6235     4.8794     4.0759 C.ar    
  20 C20            0.7564     5.8306     3.0504 C.ar    
  21 C21            0.7600     7.2082     3.3285 C.ar    
  22 C22            0.8905     8.1005     2.3092 C.ar    
  23 C23            1.0205     7.6694     0.9902 C.ar    
  24 C24            1.0208     6.3437     0.6830 C.ar    
  25 C25            0.8940     5.3920     1.7095 C.ar    
  26 C26           -1.2192    -0.7519    -0.3017 C.3     
  27 C27            4.8827    -5.4886     0.3355 C.3     
  28 C28            4.2649    -6.8603     0.2469 C.ar    
  29 C29            4.1174    -7.4738    -0.9831 C.ar    
  30 C30            3.5506    -8.7320    -1.0643 C.ar    
  31 C31            3.1318    -9.3769     0.0844 C.ar    
  32 C32            3.2801    -8.7638     1.3144 C.ar    
  33 C33            3.8508    -7.5074     1.3961 C.ar    
  34 H34            4.5308    -0.4389     0.3622 H       
  35 H35            1.9244     3.9547    -0.4319 H       
  36 H36            0.1533     3.8381    -0.5663 H       
  37 H37            0.7513     2.0643     2.2337 H       
  38 H38            0.5211     2.8243     4.5589 H       
  39 H39            0.5212     5.1988     5.1025 H       
  40 H40            0.6593     7.5570     4.3457 H       
  41 H41            0.8929     9.1586     2.5257 H       
  42 H42            1.1223     8.3985     0.1999 H       
  43 H43            1.1217     6.0244    -0.3438 H       
  44 H44           -2.0488    -0.0501    -0.3875 H       
  45 H45           -1.1697    -1.3674    -1.1999 H       
  46 H46           -1.3720    -1.3904     0.5684 H       
  47 H47            5.5976    -5.3590    -0.4770 H       
  48 H48            5.3957    -5.3822     1.2913 H       
  49 H49            4.4446    -6.9699    -1.8805 H       
  50 H50            3.4347    -9.2110    -2.0253 H       
  51 H51            2.6884   -10.3596     0.0208 H       
  52 H52            2.9526    -9.2675     2.2119 H       
  53 H53            3.9701    -7.0300     2.3575 H       
@<TRIPOS>BOND
   1    1    2 am
   2    1    6 am
   3    1   14 2
   4    2    3 1
   5    2   26 1
   6    3    4 2
   7    3    9 1
   8    4    5 1
   9    4    7 1
  10    5    6 am
  11    5   13 2
  12    6   15 1
  13    7    8 2
  14    7   34 1
  15    8    9 1
  16    8   10 1
  17   10   11 2
  18   10   12 1
  19   12   27 1
  20   15   16 1
  21   15   35 1
  22   15   36 1
  23   16   17 ar
  24   16   25 ar
  25   17   18 ar
  26   17   37 1
  27   18   19 ar
  28   18   38 1
  29   19   20 ar
  30   19   39 1
  31   20   21 ar
  32   20   25 ar
  33   21   22 ar
  34   21   40 1
  35   22   23 ar
  36   22   41 1
  37   23   24 ar
  38   23   42 1
  39   24   25 ar
  40   24   43 1
  41   26   44 1
  42   26   45 1
  43   26   46 1
  44   27   28 1
  45   27   47 1
  46   27   48 1
  47   28   29 ar
  48   28   33 ar
  49   29   30 ar
  50   29   49 1
  51   30   31 ar
  52   30   50 1
  53   31   32 ar
  54   31   51 1
  55   32   33 ar
  56   32   52 1
  57   33   53 1

#	End of record

