#	Name: ASD01231383
#	Creating user name:	WinNT
#	Creation time:	15. 06. 2019 19:15

#	Modifying user name:	WinNT
#	Modification time:	15. 06. 2019 19:15

#	Program:	/corina/corina34_cracker 3.40 0067  02.08.2006

@<TRIPOS>MOLECULE
ASD01231383
  46   48    0    0    0
SMALL
NO_CHARGES


@<TRIPOS>ATOM
   1 C1            -1.6000     1.7632     0.9197 C.3     
   2 C2            -1.7327     0.2647     1.1987 C.3     
   3 C3            -3.1959    -0.0716     1.4931 C.3     
   4 S4            -1.1770    -0.6719    -0.2520 S.o2    
   5 O5            -2.0666    -0.4762    -1.3427 O.2     
   6 O6             0.2281    -0.5432    -0.4204 O.2     
   7 N7            -1.3938    -2.2579     0.1723 N.am    
   8 C8            -1.5148    -3.4686     2.3300 C.3     
   9 C9            -0.6001    -2.8412     1.2567 C.3     
  10 C10            0.2044    -4.0588     0.7542 C.3     
  11 C11            0.2184    -5.0306     1.9147 C.ar    
  12 C12            1.0312    -6.1250     2.1591 C.ar    
  13 C13            0.8576    -6.8778     3.3039 C.ar    
  14 C14           -0.1304    -6.5385     4.2095 C.ar    
  15 C15           -0.9419    -5.4476     3.9675 C.ar    
  16 C16           -0.7694    -4.6914     2.8201 C.ar    
  17 C17            1.7447    -8.0675     3.5660 C.3     
  18 O18            2.8960    -7.6502     4.3025 O.3     
  19 C19            4.9500    -8.2836     5.3381 C.ar    
  20 C20            3.8044    -8.6092     4.6232 C.ar    
  21 C21            3.6000    -9.9301     4.2410 C.ar    
  22 C22            4.5541   -10.8729     4.5915 C.ar    
  23 C23            5.6685   -10.4731     5.3036 C.ar    
  24 N24            5.8332    -9.2115     5.6519 N.ar    
  25 Cl25           5.2252    -6.6380     5.8174 Cl      
  26 H26           -1.9339     2.3260     1.7914 H       
  27 H27           -0.5575     2.0028     0.7100 H       
  28 H28           -2.2140     2.0283     0.0590 H       
  29 H29           -1.1186    -0.0004     2.0594 H       
  30 H30           -3.8197     0.2646     0.6649 H       
  31 H31           -3.3036    -1.1495     1.6148 H       
  32 H32           -3.5068     0.4303     2.4093 H       
  33 H33           -2.0463    -2.8007    -0.2973 H       
  34 H34           -1.6719    -2.7676     3.1498 H       
  35 H35           -2.4694    -3.7583     1.8909 H       
  36 H36            0.0610    -2.0957     1.6987 H       
  37 H37           -0.2878    -4.5073    -0.1087 H       
  38 H38            1.2211    -3.7608     0.4982 H       
  39 H39            1.8030    -6.3908     1.4520 H       
  40 H40           -0.2678    -7.1263     5.1051 H       
  41 H41           -1.7135    -5.1832     4.6754 H       
  42 H42            1.1944    -8.8110     4.1425 H       
  43 H43            2.0585    -8.5027     2.6172 H       
  44 H44            2.7191   -10.2149     3.6849 H       
  45 H45            4.4275   -11.9082     4.3114 H       
  46 H46            6.4148   -11.2035     5.5791 H       
@<TRIPOS>BOND
   1    1    2 1
   2    1   26 1
   3    1   27 1
   4    1   28 1
   5    2    3 1
   6    2    4 1
   7    2   29 1
   8    3   30 1
   9    3   31 1
  10    3   32 1
  11    4    5 2
  12    4    6 2
  13    4    7 am
  14    7    9 1
  15    7   33 1
  16    8    9 1
  17    8   16 1
  18    8   34 1
  19    8   35 1
  20    9   10 1
  21    9   36 1
  22   10   11 1
  23   10   37 1
  24   10   38 1
  25   11   12 ar
  26   11   16 ar
  27   12   13 ar
  28   12   39 1
  29   13   14 ar
  30   13   17 1
  31   14   15 ar
  32   14   40 1
  33   15   16 ar
  34   15   41 1
  35   17   18 1
  36   17   42 1
  37   17   43 1
  38   18   20 1
  39   19   20 ar
  40   19   24 ar
  41   19   25 1
  42   20   21 ar
  43   21   22 ar
  44   21   44 1
  45   22   23 ar
  46   22   45 1
  47   23   24 ar
  48   23   46 1

#	End of record

