#	Name: ASD04590321
#	Creating user name:	WinNT
#	Creation time:	15. 06. 2019 20:50

#	Modifying user name:	WinNT
#	Modification time:	15. 06. 2019 20:50

#	Program:	/corina/corina34_cracker 3.40 0067  02.08.2006

@<TRIPOS>MOLECULE
ASD04590321
  42   45    0    0    0
SMALL
NO_CHARGES


@<TRIPOS>ATOM
   1 C1            -0.0167     1.3834     0.0096 C.ar    
   2 C2             0.0021    -0.0041     0.0020 C.ar    
   3 C3             1.1863    -0.6848    -0.0125 C.ar    
   4 C4             2.3948     0.0191    -0.0203 C.ar    
   5 C5             2.3756     1.4250    -0.0131 C.ar    
   6 C6             1.1624     2.0987     0.0022 C.ar    
   7 N7             3.6952    -0.3636    -0.0349 N.2     
   8 C8             4.4665     0.6967    -0.0371 C.2     
   9 N9             3.6970     1.8290    -0.0239 N.pl3   
  10 C10            5.9437     0.6731    -0.0516 C.2     
  11 C11            6.7566    -0.4840    -0.0658 C.2     
  12 C12            8.0504    -0.0799    -0.0770 C.2     
  13 N13            8.0626     1.2789    -0.0702 N.pl3   
  14 N14            6.7358     1.7273    -0.0593 N.2     
  15 N15            6.3044    -1.8133    -0.0672 N.am    
  16 C16            7.1924    -2.8271    -0.0816 C.2     
  17 C17            6.7164    -4.2266    -0.0831 C.ar    
  18 O18            8.3849    -2.5906    -0.0933 O.2     
  19 C19            4.9105    -5.8099    -0.0655 C.ar    
  20 C20            5.8246    -6.8483    -0.0861 C.ar    
  21 C21            7.1824    -6.5827    -0.0994 C.ar    
  22 C22            7.6334    -5.2789    -0.0980 C.ar    
  23 C23            5.3480    -4.5016    -0.0639 C.ar    
  24 C24            5.3393    -8.2751    -0.0871 C.3     
  25 C25            5.1527    -8.7492    -1.5298 C.3     
  26 Cl26           4.5721   -10.4561    -1.5311 Cl      
  27 H27           -0.9614     1.9069     0.0170 H       
  28 H28           -0.9290    -0.5513     0.0080 H       
  29 H29            1.1893    -1.7648    -0.0177 H       
  30 H30            1.1417     3.1785     0.0075 H       
  31 H31            4.0192     2.7439    -0.0221 H       
  32 H32            8.9176    -0.7236    -0.0888 H       
  33 H33            8.8531     1.8410    -0.0754 H       
  34 H34            5.3530    -2.0020    -0.0579 H       
  35 H35            3.8519    -6.0241    -0.0556 H       
  36 H36            7.8908    -7.3978    -0.1154 H       
  37 H37            8.6935    -5.0729    -0.1087 H       
  38 H38            4.6334    -3.6920    -0.0475 H       
  39 H39            6.0728    -8.9087     0.4115 H       
  40 H40            4.3879    -8.3356     0.4412 H       
  41 H41            4.4192    -8.1155    -2.0284 H       
  42 H42            6.1041    -8.6886    -2.0582 H       
@<TRIPOS>BOND
   1    1    2 ar
   2    1    6 ar
   3    1   27 1
   4    2    3 ar
   5    2   28 1
   6    3    4 ar
   7    3   29 1
   8    4    5 ar
   9    4    7 1
  10    5    6 ar
  11    5    9 1
  12    6   30 1
  13    7    8 2
  14    8    9 1
  15    8   10 1
  16    9   31 1
  17   10   11 1
  18   10   14 2
  19   11   12 2
  20   11   15 1
  21   12   13 1
  22   12   32 1
  23   13   14 1
  24   13   33 1
  25   15   16 am
  26   15   34 1
  27   16   17 1
  28   16   18 2
  29   17   22 ar
  30   17   23 ar
  31   19   20 ar
  32   19   23 ar
  33   19   35 1
  34   20   21 ar
  35   20   24 1
  36   21   22 ar
  37   21   36 1
  38   22   37 1
  39   23   38 1
  40   24   25 1
  41   24   39 1
  42   24   40 1
  43   25   26 1
  44   25   41 1
  45   25   42 1

#	End of record

