#	Name: ASD01913448
#	Creating user name:	WinNT
#	Creation time:	15. 06. 2019 20:01

#	Modifying user name:	WinNT
#	Modification time:	15. 06. 2019 20:01

#	Program:	/corina/corina34_cracker 3.40 0067  02.08.2006

@<TRIPOS>MOLECULE
ASD01913448
  34   36    0    0    0
SMALL
NO_CHARGES


@<TRIPOS>ATOM
   1 C1             0.9003     0.0782    -1.0339 C.ar    
   2 C2             0.0280    -0.0126     0.0459 C.ar    
   3 C3             0.3740     0.6324     1.2289 C.ar    
   4 N4             1.5121     1.3044     1.2845 N.ar    
   5 C5             2.3124     1.3671     0.2393 C.ar    
   6 N6             2.0199     0.7697    -0.8984 N.ar    
   7 C7            -1.0548    -2.0640    -0.1502 C.ar    
   8 C8            -2.2193    -2.8192    -0.1664 C.ar    
   9 C9            -2.1309    -4.1983    -0.2724 C.ar    
  10 C10           -0.8753    -4.7767    -0.3589 C.ar    
  11 C11            0.2500    -3.9618    -0.3369 C.ar    
  12 N12            0.1302    -2.6470    -0.2346 N.ar    
  13 N13            1.5173    -4.5340    -0.4228 N.am    
  14 C14            2.6080    -3.7466    -0.5051 C.2     
  15 O15           -1.1326    -0.7131    -0.0525 O.3     
  16 C16            3.9398    -4.3493    -0.7240 C.ar    
  17 C17            5.0713    -3.5366    -0.8097 C.ar    
  18 C18            6.3119    -4.1050    -1.0137 C.ar    
  19 C19            6.4364    -5.4773    -1.1333 C.ar    
  20 C20            5.3182    -6.2900    -1.0493 C.ar    
  21 C21            4.0719    -5.7341    -0.8402 C.ar    
  22 O22            2.4965    -2.5408    -0.3993 O.2     
  23 Cl23           5.4846    -8.0113    -1.2013 Cl      
  24 H24            0.6691    -0.4125    -1.9678 H       
  25 H25           -0.2772     0.5855     2.0892 H       
  26 H26            3.2343     1.9243     0.3173 H       
  27 H27           -3.1834    -2.3376    -0.0969 H       
  28 H28           -3.0217    -4.8087    -0.2869 H       
  29 H29           -0.7721    -5.8485    -0.4421 H       
  30 H30            1.6146    -5.4991    -0.4234 H       
  31 H31            4.9759    -2.4648    -0.7168 H       
  32 H32            7.1879    -3.4768    -1.0804 H       
  33 H33            7.4099    -5.9170    -1.2932 H       
  34 H34            3.2003    -6.3685    -0.7748 H       
@<TRIPOS>BOND
   1    1    2 ar
   2    1    6 ar
   3    1   24 1
   4    2    3 ar
   5    2   15 1
   6    3    4 ar
   7    3   25 1
   8    4    5 ar
   9    5    6 ar
  10    5   26 1
  11    7    8 ar
  12    7   12 ar
  13    7   15 1
  14    8    9 ar
  15    8   27 1
  16    9   10 ar
  17    9   28 1
  18   10   11 ar
  19   10   29 1
  20   11   12 ar
  21   11   13 1
  22   13   14 am
  23   13   30 1
  24   14   16 1
  25   14   22 2
  26   16   17 ar
  27   16   21 ar
  28   17   18 ar
  29   17   31 1
  30   18   19 ar
  31   18   32 1
  32   19   20 ar
  33   19   33 1
  34   20   21 ar
  35   20   23 1
  36   21   34 1

#	End of record

