#	Name: ASD07300315
#	Creating user name:	WinNT
#	Creation time:	15. 06. 2019 21:09

#	Modifying user name:	WinNT
#	Modification time:	15. 06. 2019 21:09

#	Program:	/corina/corina34_cracker 3.40 0067  02.08.2006

@<TRIPOS>MOLECULE
ASD07300315
  46   50    0    0    0
SMALL
NO_CHARGES


@<TRIPOS>ATOM
   1 C1            -0.0103     1.3987    -0.2545 C.ar    
   2 C2             0.0123     0.0084    -0.2812 C.ar    
   3 C3             1.2086    -0.6654    -0.3886 C.ar    
   4 C4             2.3794     0.0801    -0.4684 C.ar    
   5 C5             2.2962     1.4581    -0.4370 C.ar    
   6 N6             1.1347     2.0707    -0.3342 N.ar    
   7 N7            -1.3209     1.8532    -0.1355 N.am    
   8 C8            -1.4239    -0.4452    -0.1742 C.3     
   9 C9            -2.2086     0.8464    -0.0785 C.2     
  10 O10           -3.4123     0.9521     0.0255 O.2     
  11 C11           -1.8302    -1.2384    -1.4178 C.3     
  12 C12           -1.6291    -1.2834     1.0893 C.3     
  13 C13           -1.6745     3.2091    -0.0810 C.ar    
  14 C14           -0.6905     4.1865    -0.1467 C.ar    
  15 C15           -1.0392     5.5214    -0.0935 C.ar    
  16 C16           -2.3726     5.8862     0.0263 C.ar    
  17 C17           -3.3562     4.9097     0.0925 C.ar    
  18 C18           -3.0091     3.5747     0.0330 C.ar    
  19 O19           -2.7154     7.2006     0.0791 O.3     
  20 C20            0.2640     8.9805     0.3987 C.2     
  21 C21            1.6356     9.2543     0.5661 C.2     
  22 C22            2.0609    10.5469     0.5789 C.2     
  23 C23            1.1297    11.5868     0.4257 C.2     
  24 C24           -0.1817    11.3083     0.2669 C.2     
  25 N25           -0.6208    10.0167     0.2516 N.pl3   
  26 N26           -0.4193     7.8442     0.3530 N.2     
  27 C27           -1.7159     8.1177     0.1747 C.2     
  28 C28           -1.8669     9.4639     0.1093 C.2     
  29 H29            1.2366    -1.7448    -0.4098 H       
  30 H30            3.3379    -0.4104    -0.5532 H       
  31 H31            3.2008     2.0449    -0.4985 H       
  32 H32           -1.1889    -2.1143    -1.5157 H       
  33 H33           -2.8683    -1.5569    -1.3225 H       
  34 H34           -1.7229    -0.6090    -2.3013 H       
  35 H35           -1.3807    -0.6856     1.9662 H       
  36 H36           -2.6700    -1.6013     1.1493 H       
  37 H37           -0.9829    -2.1604     1.0524 H       
  38 H38            0.3474     3.9027    -0.2392 H       
  39 H39           -0.2740     6.2818    -0.1446 H       
  40 H40           -4.3939     5.1941     0.1864 H       
  41 H41           -3.7751     2.8148     0.0798 H       
  42 H42            2.3427     8.4463     0.6834 H       
  43 H43            3.1094    10.7719     0.7067 H       
  44 H44            1.4640    12.6137     0.4355 H       
  45 H45           -0.8897    12.1154     0.1506 H       
  46 H46           -2.7947     9.9996    -0.0271 H       
@<TRIPOS>BOND
   1    1    2 ar
   2    1    6 ar
   3    1    7 1
   4    2    3 ar
   5    2    8 1
   6    3    4 ar
   7    3   29 1
   8    4    5 ar
   9    4   30 1
  10    5    6 ar
  11    5   31 1
  12    7    9 am
  13    7   13 1
  14    8    9 1
  15    8   11 1
  16    8   12 1
  17    9   10 2
  18   11   32 1
  19   11   33 1
  20   11   34 1
  21   12   35 1
  22   12   36 1
  23   12   37 1
  24   13   14 ar
  25   13   18 ar
  26   14   15 ar
  27   14   38 1
  28   15   16 ar
  29   15   39 1
  30   16   17 ar
  31   16   19 1
  32   17   18 ar
  33   17   40 1
  34   18   41 1
  35   19   27 1
  36   20   21 1
  37   20   25 1
  38   20   26 2
  39   21   22 2
  40   21   42 1
  41   22   23 1
  42   22   43 1
  43   23   24 2
  44   23   44 1
  45   24   25 1
  46   24   45 1
  47   25   28 1
  48   26   27 1
  49   27   28 2
  50   28   46 1

#	End of record

