#	Name: ASD04880286
#	Creating user name:	WinNT
#	Creation time:	15. 06. 2019 20:53

#	Modifying user name:	WinNT
#	Modification time:	15. 06. 2019 20:53

#	Program:	/corina/corina34_cracker 3.40 0067  02.08.2006

@<TRIPOS>MOLECULE
ASD04880286
  46   48    0    0    0
SMALL
NO_CHARGES


@<TRIPOS>ATOM
   1 C1            -0.0179     1.4673     0.0101 C.3     
   2 N2             0.0021    -0.0041     0.0020 N.am    
   3 N3             1.3266    -0.4365    -0.0130 N.2     
   4 C4             2.1918     0.5176    -0.0161 C.2     
   5 C5             1.4756     1.8491    -0.0021 C.3     
   6 C6            -1.0834    -0.8029     0.0085 C.2     
   7 N7            -0.9344    -2.1424    -0.0002 N.am    
   8 O8            -2.1972    -0.3151     0.0222 O.2     
   9 C9            -2.1144    -3.0107     0.0069 C.3     
  10 C10            3.6553     0.3388    -0.0310 C.ar    
  11 C11            4.4970     1.4539    -0.0326 C.ar    
  12 C12            5.8655     1.2845    -0.0460 C.ar    
  13 C13            6.4098     0.0085    -0.0586 C.ar    
  14 C14            5.5766    -1.1079    -0.0572 C.ar    
  15 C15            4.2038    -0.9461    -0.0378 C.ar    
  16 O16            6.1138    -2.3572    -0.0695 O.3     
  17 O17            7.7595    -0.1528    -0.0728 O.3     
  18 C18            8.5548     1.0345    -0.0739 C.3     
  19 C19            5.2005    -3.4562    -0.0672 C.3     
  20 C20           -1.6769    -4.4527    -0.0052 C.ar    
  21 C21           -1.4646    -5.1200     1.1860 C.ar    
  22 C22           -1.0626    -6.4451     1.1746 C.ar    
  23 C23           -0.8740    -7.0998    -0.0306 C.ar    
  24 C24           -1.0870    -6.4303    -1.2209 C.ar    
  25 C25           -1.4937    -5.1093    -1.2082 C.ar    
  26 F26           -0.8543    -7.0984     2.3386 F       
  27 H27           -0.5187     1.8491    -0.8796 H       
  28 H28           -0.5016     1.8395     0.9133 H       
  29 H29            1.7164     2.4222    -0.8975 H       
  30 H30            1.7335     2.4126     0.8946 H       
  31 H31           -0.0460    -2.5315    -0.0111 H       
  32 H32           -2.7027    -2.8170     0.9038 H       
  33 H33           -2.7203    -2.8074    -0.8761 H       
  34 H34            4.0760     2.4484    -0.0235 H       
  35 H35            6.5151     2.1473    -0.0472 H       
  36 H36            3.5568    -1.8108    -0.0367 H       
  37 H37            8.3214     1.6273    -0.9583 H       
  38 H38            8.3389     1.6173     0.8215 H       
  39 H39            9.6107     0.7645    -0.0858 H       
  40 H40            4.5647    -3.4021    -0.9509 H       
  41 H41            5.7585    -4.3925    -0.0779 H       
  42 H42            4.5815    -3.4124     0.8290 H       
  43 H43           -1.6117    -4.6082     2.1256 H       
  44 H44           -0.5601    -8.1331    -0.0407 H       
  45 H45           -0.9399    -6.9408    -2.1612 H       
  46 H46           -1.6602    -4.5870    -2.1387 H       
@<TRIPOS>BOND
   1    1    2 1
   2    1    5 1
   3    1   27 1
   4    1   28 1
   5    2    3 1
   6    2    6 am
   7    3    4 2
   8    4    5 1
   9    4   10 1
  10    5   29 1
  11    5   30 1
  12    6    7 am
  13    6    8 2
  14    7    9 1
  15    7   31 1
  16    9   20 1
  17    9   32 1
  18    9   33 1
  19   10   11 ar
  20   10   15 ar
  21   11   12 ar
  22   11   34 1
  23   12   13 ar
  24   12   35 1
  25   13   14 ar
  26   13   17 1
  27   14   15 ar
  28   14   16 1
  29   15   36 1
  30   16   19 1
  31   17   18 1
  32   18   37 1
  33   18   38 1
  34   18   39 1
  35   19   40 1
  36   19   41 1
  37   19   42 1
  38   20   21 ar
  39   20   25 ar
  40   21   22 ar
  41   21   43 1
  42   22   23 ar
  43   22   26 1
  44   23   24 ar
  45   23   44 1
  46   24   25 ar
  47   24   45 1
  48   25   46 1

#	End of record

