#	Name: ASD03090534
#	Creating user name:	WinNT
#	Creation time:	15. 06. 2019 20:29

#	Modifying user name:	WinNT
#	Modification time:	15. 06. 2019 20:29

#	Program:	/corina/corina34_cracker 3.40 0067  02.08.2006

@<TRIPOS>MOLECULE
ASD03090534
  44   47    0    0    0
SMALL
NO_CHARGES


@<TRIPOS>ATOM
   1 C1            -0.0924     1.5034    -0.4857 C.2     
   2 C2            -0.0558    -0.0031    -0.4708 C.3     
   3 O3             0.8186     2.1272    -0.9878 O.2     
   4 N4            -1.1401     2.1574     0.0539 N.am    
   5 N5             4.7927    -1.7859    -2.7160 N.pl3   
   6 C6             5.5750    -1.8118    -1.5937 C.2     
   7 C7             4.8596    -1.4187    -0.5281 C.2     
   8 C8             3.5087    -1.1162    -1.0071 C.ar    
   9 C9             2.3370    -0.6726    -0.3907 C.ar    
  10 C10            1.2086    -0.4814    -1.1368 C.ar    
  11 C11            1.2172    -0.7248    -2.5036 C.ar    
  12 C12            2.3620    -1.1633    -3.1319 C.ar    
  13 C13            3.5226    -1.3647    -2.3916 C.ar    
  14 C14           -1.1216     3.5552     0.1453 C.ar    
  15 C15           -2.2990     4.2765    -0.0009 C.ar    
  16 C16           -2.2802     5.6542     0.0893 C.ar    
  17 C17           -1.0848     6.3179     0.3255 C.ar    
  18 C18            0.0922     5.5977     0.4713 C.ar    
  19 C19            0.0734     4.2196     0.3879 C.ar    
  20 O20           -1.0667     7.6744     0.4138 O.3     
  21 C21           -0.4121     8.3681    -0.5543 C.ar    
  22 C22            0.1091     7.7021    -1.6543 C.ar    
  23 C23            0.7742     8.4090    -2.6372 C.ar    
  24 C24            0.9208     9.7804    -2.5253 C.ar    
  25 C25            0.4021    10.4464    -1.4288 C.ar    
  26 C26           -0.2690     9.7440    -0.4468 C.ar    
  27 Cl27           1.7571    10.6665    -3.7619 Cl      
  28 H28           -0.0798    -0.3569     0.5599 H       
  29 H29           -0.9198    -0.3929    -1.0090 H       
  30 H30           -1.9069     1.6602     0.3789 H       
  31 H31            5.0897    -2.0246    -3.6080 H       
  32 H32            6.6140    -2.1054    -1.5689 H       
  33 H33            5.2130    -1.3402     0.4895 H       
  34 H34            2.3225    -0.4820     0.6723 H       
  35 H35            0.3173    -0.5691    -3.0801 H       
  36 H36            2.3586    -1.3502    -4.1956 H       
  37 H37           -3.2294     3.7600    -0.1855 H       
  38 H38           -3.1959     6.2153    -0.0245 H       
  39 H39            1.0223     6.1149     0.6548 H       
  40 H40            0.9888     3.6588     0.5061 H       
  41 H41           -0.0048     6.6317    -1.7418 H       
  42 H42            1.1803     7.8910    -3.4934 H       
  43 H43            0.5183    11.5167    -1.3430 H       
  44 H44           -0.6778    10.2648     0.4064 H       
@<TRIPOS>BOND
   1    1    2 1
   2    1    3 2
   3    1    4 am
   4    2   10 1
   5    2   28 1
   6    2   29 1
   7    4   14 1
   8    4   30 1
   9    5    6 1
  10    5   13 1
  11    5   31 1
  12    6    7 2
  13    6   32 1
  14    7    8 1
  15    7   33 1
  16    8    9 ar
  17    8   13 ar
  18    9   10 ar
  19    9   34 1
  20   10   11 ar
  21   11   12 ar
  22   11   35 1
  23   12   13 ar
  24   12   36 1
  25   14   15 ar
  26   14   19 ar
  27   15   16 ar
  28   15   37 1
  29   16   17 ar
  30   16   38 1
  31   17   18 ar
  32   17   20 1
  33   18   19 ar
  34   18   39 1
  35   19   40 1
  36   20   21 1
  37   21   22 ar
  38   21   26 ar
  39   22   23 ar
  40   22   41 1
  41   23   24 ar
  42   23   42 1
  43   24   25 ar
  44   24   27 1
  45   25   26 ar
  46   25   43 1
  47   26   44 1

#	End of record

