#	Name: ASD01000110
#	Creating user name:	WinNT
#	Creation time:	15. 06. 2019 18:54

#	Modifying user name:	WinNT
#	Modification time:	15. 06. 2019 18:54

#	Program:	/corina/corina34_cracker 3.40 0067  02.08.2006

@<TRIPOS>MOLECULE
ASD01000110
  39   41    0    0    0
SMALL
NO_CHARGES


@<TRIPOS>ATOM
   1 C1             0.0366     1.2244    -0.4151 C.ar    
   2 C2             0.0237    -0.1247    -0.0967 C.ar    
   3 C3             1.2210    -0.8186     0.0852 C.ar    
   4 C4             2.4186    -0.1582    -0.0599 C.ar    
   5 C5             2.4255     1.1949    -0.3769 C.ar    
   6 C6             1.2427     1.8832    -0.5534 C.ar    
   7 C7             1.1380    -2.2787     0.4455 C.3     
   8 C8             2.4724    -2.9737     0.1830 C.3     
   9 C9             3.5825    -2.1623     0.8613 C.3     
  10 C10            3.7486    -0.8462     0.1044 C.3     
  11 N11            4.6588     0.0313     0.8524 N.3     
  12 C12            6.0592    -0.2425     0.5033 C.3     
  13 C13            6.9659     0.5837     1.3787 C.ar    
  14 N14           -1.1946    -0.7933     0.0435 N.pl3   
  15 C15            7.4097     0.0780     2.5863 C.ar    
  16 C16            8.2413     0.8359     3.3893 C.ar    
  17 C17            8.6295     2.0994     2.9845 C.ar    
  18 C18            8.1864     2.6048     1.7765 C.ar    
  19 C19            7.3583     1.8451     0.9715 C.ar    
  20 H20           -0.8920     1.7568    -0.5588 H       
  21 H21            3.3666     1.7133    -0.4859 H       
  22 H22            1.2599     2.9346    -0.7998 H       
  23 H23            0.8845    -2.3744     1.5013 H       
  24 H24            0.3615    -2.7533    -0.1543 H       
  25 H25            2.4490    -3.9816     0.5974 H       
  26 H26            2.6564    -3.0217    -0.8903 H       
  27 H27            3.3081    -1.9584     1.8963 H       
  28 H28            4.5169    -2.7228     0.8323 H       
  29 H29            4.1726    -1.0483    -0.8792 H       
  30 H30            4.4314     1.0024     0.7000 H       
  31 H31            6.2716    -1.3006     0.6565 H       
  32 H32            6.2301     0.0148    -0.5420 H       
  33 H33           -2.0283    -0.3137    -0.0820 H       
  34 H34           -1.2068    -1.7373     0.2662 H       
  35 H35            7.1064    -0.9091     2.9025 H       
  36 H36            8.5874     0.4411     4.3330 H       
  37 H37            9.2787     2.6918     3.6122 H       
  38 H38            8.4895     3.5920     1.4605 H       
  39 H39            7.0122     2.2399     0.0278 H       
@<TRIPOS>BOND
   1    1    2 ar
   2    1    6 ar
   3    1   20 1
   4    2    3 ar
   5    2   14 1
   6    3    4 ar
   7    3    7 1
   8    4    5 ar
   9    4   10 1
  10    5    6 ar
  11    5   21 1
  12    6   22 1
  13    7    8 1
  14    7   23 1
  15    7   24 1
  16    8    9 1
  17    8   25 1
  18    8   26 1
  19    9   10 1
  20    9   27 1
  21    9   28 1
  22   10   11 1
  23   10   29 1
  24   11   12 1
  25   11   30 1
  26   12   13 1
  27   12   31 1
  28   12   32 1
  29   13   15 ar
  30   13   19 ar
  31   14   33 1
  32   14   34 1
  33   15   16 ar
  34   15   35 1
  35   16   17 ar
  36   16   36 1
  37   17   18 ar
  38   17   37 1
  39   18   19 ar
  40   18   38 1
  41   19   39 1

#	End of record

