#	Name: ASD01912292
#	Creating user name:	WinNT
#	Creation time:	15. 06. 2019 19:59

#	Modifying user name:	WinNT
#	Modification time:	15. 06. 2019 19:59

#	Program:	/corina/corina34_cracker 3.40 0067  02.08.2006

@<TRIPOS>MOLECULE
ASD01912292
  48   50    0    0    0
SMALL
NO_CHARGES


@<TRIPOS>ATOM
   1 C1            -0.0169     1.3937     0.0097 C.ar    
   2 C2             0.0021    -0.0041     0.0020 C.ar    
   3 C3             1.2200    -0.6586    -0.0132 C.ar    
   4 C4             2.3820     0.1017    -0.0202 C.ar    
   5 C5             2.2917     1.4816    -0.0120 C.ar    
   6 N6             1.1202     2.0835     0.0026 N.ar    
   7 C7             3.5515     2.3086    -0.0196 C.3     
   8 C8            -1.2694     2.0877     0.0194 C.1     
   9 C9            -2.2963     2.6567     0.0274 C.1     
  10 C10           -3.5488     3.3508     0.0371 C.2     
  11 N11           -3.6111     7.1939     1.1690 N.am    
  12 C12           -4.8645     6.4304     1.2214 C.3     
  13 C13           -4.8852     5.4347     0.0547 C.3     
  14 C14           -3.5723     4.6828     0.0444 C.2     
  15 C15           -2.2866     5.4804     0.0422 C.3     
  16 C16           -2.3311     6.4750     1.2091 C.3     
  17 S17           -3.6407     8.8460     1.0592 S.o2    
  18 O18           -2.4110     9.1774     0.4290 O.2     
  19 O19           -4.8845     9.1334     0.4351 O.2     
  20 C20           -3.6466     9.4141     2.7819 C.3     
  21 C21           -3.6733    10.9206     2.8140 C.ar    
  22 C22           -4.8826    11.5898     2.8316 C.ar    
  23 C23           -4.9068    12.9737     2.8615 C.ar    
  24 C24           -3.7192    13.6858     2.8737 C.ar    
  25 C25           -2.5115    13.0146     2.8561 C.ar    
  26 C26           -2.4886    11.6323     2.8315 C.ar    
  27 F27           -6.0881    13.6289     2.8783 F       
  28 H28           -0.9211    -0.5645     0.0082 H       
  29 H29            1.2665    -1.7376    -0.0191 H       
  30 H30            3.3483    -0.3807    -0.0317 H       
  31 H31            3.8454     2.5135    -1.0490 H       
  32 H32            3.3719     3.2492     0.5010 H       
  33 H33            4.3485     1.7612     0.4837 H       
  34 H34           -4.4745     2.7944     0.0384 H       
  35 H35           -4.9231     5.8885     2.1653 H       
  36 H36           -5.7111     7.1115     1.1355 H       
  37 H37           -5.7089     4.7329     0.1857 H       
  38 H38           -5.0071     5.9731    -0.8852 H       
  39 H39           -1.4375     4.8082     0.1651 H       
  40 H40           -2.1928     6.0227    -0.8988 H       
  41 H41           -1.5099     7.1856     1.1152 H       
  42 H42           -2.2443     5.9358     2.1524 H       
  43 H43           -4.5286     9.0242     3.2901 H       
  44 H44           -2.7489     9.0559     3.2857 H       
  45 H45           -5.8081    11.0334     2.8216 H       
  46 H46           -3.7368    14.7654     2.8967 H       
  47 H47           -1.5852    13.5697     2.8656 H       
  48 H48           -1.5442    11.1084     2.8223 H       
@<TRIPOS>BOND
   1    1    2 ar
   2    1    6 ar
   3    1    8 1
   4    2    3 ar
   5    2   28 1
   6    3    4 ar
   7    3   29 1
   8    4    5 ar
   9    4   30 1
  10    5    6 ar
  11    5    7 1
  12    7   31 1
  13    7   32 1
  14    7   33 1
  15    8    9 3
  16    9   10 1
  17   10   14 2
  18   10   34 1
  19   11   12 1
  20   11   16 1
  21   11   17 am
  22   12   13 1
  23   12   35 1
  24   12   36 1
  25   13   14 1
  26   13   37 1
  27   13   38 1
  28   14   15 1
  29   15   16 1
  30   15   39 1
  31   15   40 1
  32   16   41 1
  33   16   42 1
  34   17   18 2
  35   17   19 2
  36   17   20 1
  37   20   21 1
  38   20   43 1
  39   20   44 1
  40   21   22 ar
  41   21   26 ar
  42   22   23 ar
  43   22   45 1
  44   23   24 ar
  45   23   27 1
  46   24   25 ar
  47   24   46 1
  48   25   26 ar
  49   25   47 1
  50   26   48 1

#	End of record

