#	Name: ASD01884746
#	Creating user name:	WinNT
#	Creation time:	15. 06. 2019 19:48

#	Modifying user name:	WinNT
#	Modification time:	15. 06. 2019 19:48

#	Program:	/corina/corina34_cracker 3.40 0067  02.08.2006

@<TRIPOS>MOLECULE
ASD01884746
  35   36    0    0    0
SMALL
NO_CHARGES


@<TRIPOS>ATOM
   1 C1            -0.0170     1.4061     0.0098 C.2     
   2 C2             0.0021    -0.0041     0.0020 C.2     
   3 C3            -1.2283    -0.6974     0.0100 C.2     
   4 C4            -2.3897    -0.0086     0.0247 C.2     
   5 N5            -2.4074     1.3507     0.0322 N.am    
   6 C6            -1.2684     2.0675     0.0312 C.2     
   7 C7             1.2044     2.1535     0.0021 C.1     
   8 N8             2.1734     2.7464    -0.0039 N.1     
   9 C9             1.2751    -0.7364    -0.0145 C.2     
  10 C10           -3.6943     2.0505     0.0477 C.3     
  11 O11           -1.3144     3.2860     0.0384 O.2     
  12 C12           -4.1292     2.2863     1.4955 C.3     
  13 C13           -5.4087     3.1251     1.5135 C.3     
  14 C14           -4.3919     0.9408     2.1748 C.3     
  15 C15           -5.7746     3.4662     2.9595 C.3     
  16 C16            1.7475    -1.5466     0.9780 C.2     
  17 C17            2.9904    -2.0357     0.5429 C.2     
  18 C18            3.2185    -1.5092    -0.6799 C.2     
  19 O19            2.1792    -0.7310    -1.0149 O.3     
  20 H20           -1.2403    -1.7773     0.0039 H       
  21 H21           -3.3246    -0.5492     0.0304 H       
  22 H22           -3.5931     3.0087    -0.4619 H       
  23 H23           -4.4433     1.4449    -0.4626 H       
  24 H24           -3.3404     2.8154     2.0302 H       
  25 H25           -5.2475     4.0458     0.9527 H       
  26 H26           -6.2207     2.5591     1.0571 H       
  27 H27           -3.4804     0.3432     2.1619 H       
  28 H28           -4.7017     1.1088     3.2062 H       
  29 H29           -5.1807     0.4117     1.6401 H       
  30 H30           -6.6861     4.0638     2.9723 H       
  31 H31           -5.9357     2.5456     3.5203 H       
  32 H32           -4.9626     4.0323     3.4159 H       
  33 H33            1.2600    -1.7683     1.9158 H       
  34 H34            3.6413    -2.7060     1.0845 H       
  35 H35            4.0919    -1.6888    -1.2892 H       
@<TRIPOS>BOND
   1    1    2 2
   2    1    7 1
   3    1    6 1
   4    2    3 1
   5    2    9 1
   6    3    4 2
   7    3   20 1
   8    4    5 1
   9    4   21 1
  10    5    6 am
  11    5   10 1
  12    6   11 2
  13    7    8 3
  14    9   16 2
  15    9   19 1
  16   10   12 1
  17   10   22 1
  18   10   23 1
  19   12   14 1
  20   12   13 1
  21   12   24 1
  22   13   15 1
  23   13   25 1
  24   13   26 1
  25   14   27 1
  26   14   28 1
  27   14   29 1
  28   15   30 1
  29   15   31 1
  30   15   32 1
  31   16   17 1
  32   16   33 1
  33   17   18 2
  34   17   34 1
  35   18   19 1
  36   18   35 1

#	End of record

