#	Name: ASD01028344
#	Creating user name:	WinNT
#	Creation time:	15. 06. 2019 18:57

#	Modifying user name:	WinNT
#	Modification time:	15. 06. 2019 18:57

#	Program:	/corina/corina34_cracker 3.40 0067  02.08.2006

@<TRIPOS>MOLECULE
ASD01028344
  44   48    0    0    0
SMALL
NO_CHARGES


@<TRIPOS>ATOM
   1 C1            -0.0171     1.4118     0.0098 C.ar    
   2 C2             0.0021    -0.0041     0.0020 C.ar    
   3 C3             1.2105     2.1116     0.0018 C.ar    
   4 C4             2.3793     1.3714    -0.0133 C.ar    
   5 C5             2.3160    -0.0162    -0.0202 C.ar    
   6 N6             1.1704    -0.6565    -0.0123 N.ar    
   7 O7             1.2420     3.4670     0.0084 O.3     
   8 C8             2.5299     4.0861    -0.0005 C.3     
   9 C9             2.3673     5.5842     0.0086 C.2     
  10 N10            2.2915     6.3713     1.1040 N.pl3   
  11 C11            2.1486     7.6568     0.6381 C.2     
  12 N12            2.1449     7.5870    -0.6830 N.2     
  13 N13            2.2796     6.3587    -1.0441 N.2     
  14 N14            2.3293     6.1247     2.4778 N.2     
  15 C15            2.2291     7.1156     3.3360 C.2     
  16 C16            2.0815     8.4458     2.8891 C.2     
  17 C17            2.0421     8.7172     1.5579 C.2     
  18 C18            2.2712     6.8317     4.7916 C.ar    
  19 C19           -1.2152    -0.7043     0.0100 C.ar    
  20 C20            2.4159     5.5249     5.2644 C.ar    
  21 N21            2.4491     5.3164     6.5693 N.ar    
  22 C22            2.3480     6.3194     7.4188 C.ar    
  23 N23            2.2102     7.5669     7.0151 N.ar    
  24 C24            2.1730     7.8644     5.7276 C.ar    
  25 C25           -2.4012    -0.0065     0.0251 C.ar    
  26 C26           -2.4085     1.3917     0.0322 C.ar    
  27 C27           -1.2431     2.0938     0.0309 C.ar    
  28 O28           -3.5786    -0.6840     0.0328 O.3     
  29 C29           -4.7758     0.0961     0.0485 C.3     
  30 H30            3.3370     1.8705    -0.0202 H       
  31 H31            3.2348    -0.5838    -0.0321 H       
  32 H32            3.0883     3.7758     0.8827 H       
  33 H33            3.0716     3.7849    -0.8972 H       
  34 H34            2.0001     9.2495     3.6059 H       
  35 H35            1.9293     9.7335     1.2102 H       
  36 H36           -1.2205    -1.7843     0.0039 H       
  37 H37            2.4990     4.6981     4.5745 H       
  38 H38            2.3786     6.1128     8.4784 H       
  39 H39            2.0602     8.8887     5.4044 H       
  40 H40           -3.3501     1.9205     0.0433 H       
  41 H41           -1.2617     3.1736     0.0364 H       
  42 H42           -4.8082     0.7297    -0.8378 H       
  43 H43           -5.6412    -0.5666     0.0533 H       
  44 H44           -4.7911     0.7202     0.9420 H       
@<TRIPOS>BOND
   1    1    2 ar
   2    1    3 ar
   3    1   27 ar
   4    2   19 ar
   5    2    6 ar
   6    3    4 ar
   7    3    7 1
   8    4    5 ar
   9    4   30 1
  10    5    6 ar
  11    5   31 1
  12    7    8 1
  13    8    9 1
  14    8   32 1
  15    8   33 1
  16    9   10 1
  17    9   13 2
  18   10   11 1
  19   10   14 1
  20   11   12 2
  21   11   17 1
  22   12   13 1
  23   14   15 2
  24   15   16 1
  25   15   18 1
  26   16   17 2
  27   16   34 1
  28   17   35 1
  29   18   20 ar
  30   18   24 ar
  31   19   25 ar
  32   19   36 1
  33   20   21 ar
  34   20   37 1
  35   21   22 ar
  36   22   23 ar
  37   22   38 1
  38   23   24 ar
  39   24   39 1
  40   25   26 ar
  41   25   28 1
  42   26   27 ar
  43   26   40 1
  44   27   41 1
  45   28   29 1
  46   29   42 1
  47   29   43 1
  48   29   44 1

#	End of record

