#	Name: ASD01800015
#	Creating user name:	WinNT
#	Creation time:	15. 06. 2019 19:23

#	Modifying user name:	WinNT
#	Modification time:	15. 06. 2019 19:23

#	Program:	/corina/corina34_cracker 3.40 0067  02.08.2006

@<TRIPOS>MOLECULE
ASD01800015
  49   52    0    0    0
SMALL
NO_CHARGES


@<TRIPOS>ATOM
   1 C1            -0.0209     1.3796     0.0291 C.ar    
   2 C2             0.0145     0.0054     0.2459 C.ar    
   3 C3             1.2320    -0.6709     0.2237 C.ar    
   4 C4             2.4088     0.0244    -0.0143 C.ar    
   5 C5             2.3759     1.3944    -0.2307 C.ar    
   6 C6             1.1608     2.0750    -0.2094 C.ar    
   7 C7             1.1263     3.5404    -0.4414 C.ar    
   8 C8            -1.2439    -0.7389     0.5011 C.ar    
   9 C9             2.3082     4.2384    -0.6809 C.ar    
  10 C10            2.2702     5.6011    -0.8965 C.ar    
  11 C11            1.0619     6.2740    -0.8748 C.ar    
  12 C12           -0.1144     5.5860    -0.6375 C.ar    
  13 C13           -0.0886     4.2223    -0.4263 C.ar    
  14 C14           -1.2106    -2.1147     0.7184 C.ar    
  15 C15           -2.3839    -2.8019     0.9557 C.ar    
  16 C16           -3.5912    -2.1272     0.9775 C.ar    
  17 C17           -3.6299    -0.7613     0.7624 C.ar    
  18 C18           -2.4621    -0.0634     0.5299 C.ar    
  19 N19            3.6310    -0.6573    -0.0357 N.am    
  20 C20            3.6969    -1.9070    -0.5359 C.2     
  21 C21            5.0290    -2.6013    -0.6560 C.3     
  22 O22            2.6840    -2.4730    -0.8894 O.2     
  23 C23            4.8388    -4.0075    -1.2511 C.3     
  24 C24            5.6419    -4.0412    -2.5678 C.3     
  25 C25            6.7148    -2.9389    -2.3866 C.3     
  26 C26            5.9411    -1.8295    -1.6319 C.3     
  27 H27           -0.9644     1.9050     0.0416 H       
  28 H28            1.2601    -1.7373     0.3923 H       
  29 H29            3.2933     1.9336    -0.4154 H       
  30 H30            3.2522     3.7141    -0.6974 H       
  31 H31            3.1857     6.1432    -1.0822 H       
  32 H32            1.0368     7.3405    -1.0433 H       
  33 H33           -1.0551     6.1163    -0.6212 H       
  34 H34           -1.0077     3.6860    -0.2415 H       
  35 H35           -0.2686    -2.6426     0.7008 H       
  36 H36           -2.3593    -3.8684     1.1242 H       
  37 H37           -4.5070    -2.6688     1.1628 H       
  38 H38           -4.5753    -0.2395     0.7802 H       
  39 H39           -2.4934     1.0031     0.3625 H       
  40 H40            4.4306    -0.2302     0.3095 H       
  41 H41            5.5030    -2.6711     0.3231 H       
  42 H42            5.2212    -4.7598    -0.5611 H       
  43 H43            3.7830    -4.1878    -1.4530 H       
  44 H44            6.1138    -5.0145    -2.7020 H       
  45 H45            4.9960    -3.8093    -3.4146 H       
  46 H46            7.5477    -3.3055    -1.7866 H       
  47 H47            7.0639    -2.5769    -3.3537 H       
  48 H48            5.3435    -1.2404    -2.3276 H       
  49 H49            6.6313    -1.1888    -1.0831 H       
@<TRIPOS>BOND
   1    1    2 ar
   2    1    6 ar
   3    1   27 1
   4    2    3 ar
   5    2    8 1
   6    3    4 ar
   7    3   28 1
   8    4    5 ar
   9    4   19 1
  10    5    6 ar
  11    5   29 1
  12    6    7 1
  13    7    9 ar
  14    7   13 ar
  15    8   14 ar
  16    8   18 ar
  17    9   10 ar
  18    9   30 1
  19   10   11 ar
  20   10   31 1
  21   11   12 ar
  22   11   32 1
  23   12   13 ar
  24   12   33 1
  25   13   34 1
  26   14   15 ar
  27   14   35 1
  28   15   16 ar
  29   15   36 1
  30   16   17 ar
  31   16   37 1
  32   17   18 ar
  33   17   38 1
  34   18   39 1
  35   19   20 am
  36   19   40 1
  37   20   21 1
  38   20   22 2
  39   21   23 1
  40   21   26 1
  41   21   41 1
  42   23   24 1
  43   23   42 1
  44   23   43 1
  45   24   25 1
  46   24   44 1
  47   24   45 1
  48   25   26 1
  49   25   46 1
  50   25   47 1
  51   26   48 1
  52   26   49 1

#	End of record

