#	Name: ASD00071122
#	Creating user name:	WinNT
#	Creation time:	15. 06. 2019 18:30

#	Modifying user name:	WinNT
#	Modification time:	15. 06. 2019 18:30

#	Program:	/corina/corina34_cracker 3.40 0067  02.08.2006

@<TRIPOS>MOLECULE
ASD00071122
  47   50    0    0    0
SMALL
NO_CHARGES


@<TRIPOS>ATOM
   1 N1            -0.0157     1.3065     0.0092 N.2     
   2 C2             0.0021    -0.0041     0.0020 C.2     
   3 N3             1.1984    -0.6822     0.0317 N.pl3   
   4 C4             2.3732    -0.0684    -0.6058 C.3     
   5 C5             2.3601     1.4066    -0.2838 C.ar    
   6 C6             3.5306     2.1320    -0.2741 C.ar    
   7 C7             3.5023     3.4864     0.0113 C.ar    
   8 C8             2.3010     4.1157     0.2867 C.ar    
   9 C9             1.1230     3.3980     0.2846 C.ar    
  10 C10            1.1441     2.0306     0.0020 C.ar    
  11 N11           -1.1783    -0.7029    -0.0348 N.pl3   
  12 C12           -2.4545     0.0160    -0.0660 C.3     
  13 C13           -3.5887    -0.9755    -0.1033 C.2     
  14 C14           -4.1977    -1.4878     0.9672 C.2     
  15 C15           -5.2164    -2.3821     0.6865 C.2     
  16 C16           -5.4346    -2.5960    -0.6119 C.2     
  17 S17           -4.3171    -1.6284    -1.5651 S.3     
  18 C18            1.3004    -1.9893     0.6854 C.3     
  19 C19            1.0037    -3.0761    -0.3155 C.ar    
  20 C20            1.9845    -3.4848    -1.2078 C.ar    
  21 C21            1.7083    -4.4854    -2.1279 C.ar    
  22 C22            0.4578    -5.0725    -2.1538 C.ar    
  23 C23           -0.5178    -4.6632    -1.2640 C.ar    
  24 C24           -0.2430    -3.6701    -0.3416 C.ar    
  25 O25            3.2135    -2.9055    -1.1807 O.3     
  26 C26            4.1738    -3.3764    -2.1285 C.3     
  27 H27            3.2838    -0.5228    -0.2154 H       
  28 H28            2.3231    -0.2105    -1.6853 H       
  29 H29            4.4702     1.6446    -0.4885 H       
  30 H30            4.4211     4.0539     0.0193 H       
  31 H31            2.2857     5.1734     0.5045 H       
  32 H32            0.1873     3.8920     0.5009 H       
  33 H33           -1.1678    -1.6728    -0.0402 H       
  34 H34           -2.5437     0.6368     0.8255 H       
  35 H35           -2.4943     0.6472    -0.9537 H       
  36 H36           -3.9171    -1.2251     1.9765 H       
  37 H37           -5.7907    -2.8699     1.4602 H       
  38 H38           -6.1851    -3.2591    -1.0161 H       
  39 H39            2.3088    -2.1217     1.0774 H       
  40 H40            0.5825    -2.0432     1.5038 H       
  41 H41            2.4699    -4.8051    -2.8238 H       
  42 H42            0.2422    -5.8516    -2.8700 H       
  43 H43           -1.4949    -5.1228    -1.2863 H       
  44 H44           -1.0053    -3.3554     0.3556 H       
  45 H45            5.1091    -2.8319    -1.9991 H       
  46 H46            4.3481    -4.4407    -1.9709 H       
  47 H47            3.7964    -3.2156    -3.1384 H       
@<TRIPOS>BOND
   1    1    2 2
   2    1   10 1
   3    2    3 1
   4    2   11 1
   5    3    4 1
   6    3   18 1
   7    4    5 1
   8    4   27 1
   9    4   28 1
  10    5    6 ar
  11    5   10 ar
  12    6    7 ar
  13    6   29 1
  14    7    8 ar
  15    7   30 1
  16    8    9 ar
  17    8   31 1
  18    9   10 ar
  19    9   32 1
  20   11   12 1
  21   11   33 1
  22   12   13 1
  23   12   34 1
  24   12   35 1
  25   13   14 2
  26   13   17 1
  27   14   15 1
  28   14   36 1
  29   15   16 2
  30   15   37 1
  31   16   17 1
  32   16   38 1
  33   18   19 1
  34   18   39 1
  35   18   40 1
  36   19   20 ar
  37   19   24 ar
  38   20   21 ar
  39   20   25 1
  40   21   22 ar
  41   21   41 1
  42   22   23 ar
  43   22   42 1
  44   23   24 ar
  45   23   43 1
  46   24   44 1
  47   25   26 1
  48   26   45 1
  49   26   46 1
  50   26   47 1

#	End of record

