#	Name: ASD08150902
#	Creating user name:	WinNT
#	Creation time:	15. 06. 2019 21:16

#	Modifying user name:	WinNT
#	Modification time:	15. 06. 2019 21:16

#	Program:	/corina/corina34_cracker 3.40 0067  02.08.2006

@<TRIPOS>MOLECULE
ASD08150902
  55   59    0    0    0
SMALL
NO_CHARGES


@<TRIPOS>ATOM
   1 N1             2.9207     3.0247     3.5984 N.2     
   2 C2             3.7089     2.1767     4.1928 C.2     
   3 N3             4.7346     1.8337     3.3630 N.pl3   
   4 C4             4.5584     2.5178     2.1868 C.ar    
   5 N5             5.2178     2.5899     1.0353 N.ar    
   6 C6             4.7846     3.3623     0.0613 C.ar    
   7 N7             3.6919     4.0956     0.1708 N.ar    
   8 C8             2.9670     4.0885     1.2848 C.ar    
   9 C9             3.3889     3.2790     2.3529 C.ar    
  10 N10            1.8235     4.8608     1.3904 N.pl3   
  11 C11            1.3994     5.6991     0.2663 C.3     
  12 C12            0.6649     4.8381    -0.7633 C.3     
  13 N13            0.6244    10.0840     2.2780 N.ar    
  14 C14           -0.1740    11.0278     2.7142 C.ar    
  15 C15           -1.5601    10.8969     2.6619 C.ar    
  16 C16           -2.1184     9.7623     2.1458 C.ar    
  17 C17           -1.2574     8.7513     1.6785 C.ar    
  18 C18           -1.7606     7.5576     1.1347 C.ar    
  19 C19           -0.9006     6.5981     0.6904 C.ar    
  20 C20            0.4769     6.7808     0.7663 C.ar    
  21 C21            1.0081     7.9378     1.2933 C.ar    
  22 C22            0.1425     8.9502     1.7618 C.ar    
  23 N23            2.3912     8.1075     1.3638 N.3     
  24 C24            3.0013     8.0362     0.0234 C.3     
  25 C25            3.7775     9.3517    -0.1962 C.3     
  26 C26            4.0348     9.8513     1.2499 C.3     
  27 C27            2.7347     9.4121     1.9686 C.3     
  28 C28            1.9093     7.8928    -1.0386 C.3     
  29 O29            1.0439     9.0288    -0.9884 O.3     
  30 C30           -0.0773     8.9448    -1.8704 C.3     
  31 Cl31          -3.4749     7.3050     1.0292 Cl      
  32 H32            3.5711     1.8006     5.1958 H       
  33 H33            5.4566     1.2189     3.5668 H       
  34 H34            5.3440     3.3979    -0.8619 H       
  35 H35            1.3028     4.8471     2.2087 H       
  36 H36            2.2743     6.1538    -0.1982 H       
  37 H37            1.3321     4.0557    -1.1250 H       
  38 H38           -0.2101     4.3834    -0.2988 H       
  39 H39            0.3493     5.4618    -1.5997 H       
  40 H40            0.2538    11.9303     3.1252 H       
  41 H41           -2.1924    11.6916     3.0293 H       
  42 H42           -3.1908     9.6438     2.0979 H       
  43 H43           -1.2939     5.6828     0.2734 H       
  44 H44            3.6852     7.1891    -0.0281 H       
  45 H45            4.7190     9.1622    -0.7117 H       
  46 H46            3.1715    10.0691    -0.7496 H       
  47 H47            4.9057     9.3599     1.6836 H       
  48 H48            4.1474    10.9352     1.2743 H       
  49 H49            1.9390    10.1351     1.7887 H       
  50 H50            2.9118     9.2997     3.0382 H       
  51 H51            2.3681     7.8288    -2.0252 H       
  52 H52            1.3325     6.9879    -0.8468 H       
  53 H53            0.2720     8.9432    -2.9030 H       
  54 H54           -0.6278     8.0252    -1.6717 H       
  55 H55           -0.7313     9.8018    -1.7094 H       
@<TRIPOS>BOND
   1    1    2 2
   2    1    9 1
   3    2    3 1
   4    2   32 1
   5    3    4 1
   6    3   33 1
   7    4    5 ar
   8    4    9 ar
   9    5    6 ar
  10    6    7 ar
  11    6   34 1
  12    7    8 ar
  13    8    9 ar
  14    8   10 1
  15   10   11 1
  16   10   35 1
  17   11   12 1
  18   11   20 1
  19   11   36 1
  20   12   37 1
  21   12   38 1
  22   12   39 1
  23   13   14 ar
  24   13   22 ar
  25   14   15 ar
  26   14   40 1
  27   15   16 ar
  28   15   41 1
  29   16   17 ar
  30   16   42 1
  31   17   18 ar
  32   17   22 ar
  33   18   19 ar
  34   18   31 1
  35   19   20 ar
  36   19   43 1
  37   20   21 ar
  38   21   22 ar
  39   21   23 1
  40   23   24 1
  41   23   27 1
  42   24   25 1
  43   24   28 1
  44   24   44 1
  45   25   26 1
  46   25   45 1
  47   25   46 1
  48   26   27 1
  49   26   47 1
  50   26   48 1
  51   27   49 1
  52   27   50 1
  53   28   29 1
  54   28   51 1
  55   28   52 1
  56   29   30 1
  57   30   53 1
  58   30   54 1
  59   30   55 1

#	End of record

