#	Name: ASD01940611
#	Creating user name:	WinNT
#	Creation time:	15. 06. 2019 20:12

#	Modifying user name:	WinNT
#	Modification time:	15. 06. 2019 20:12

#	Program:	/corina/corina34_cracker 3.40 0067  02.08.2006

@<TRIPOS>MOLECULE
ASD01940611
  46   48    0    0    0
SMALL
NO_CHARGES


@<TRIPOS>ATOM
   1 C1             0.6763     0.7962    -0.1009 C.ar    
   2 C2             0.2501    -0.5336     0.0435 C.ar    
   3 C3             1.1265    -1.4877     0.5305 C.ar    
   4 C4             2.4217    -1.1350     0.8761 C.ar    
   5 C5             2.8535     0.1729     0.7382 C.ar    
   6 C6             1.9913     1.1445     0.2515 C.ar    
   7 N7             2.4261     2.4567     0.1131 N.pl3   
   8 C8             3.5019     2.9214     0.8772 C.ar    
   9 C9             3.8373     2.2861     2.0654 C.ar    
  10 C10            4.9003     2.7468     2.8177 C.ar    
  11 C11            5.6312     3.8404     2.3895 C.ar    
  12 C12            5.3010     4.4767     1.2063 C.ar    
  13 C13            4.2416     4.0173     0.4455 C.ar    
  14 F14            3.9221     4.6355    -0.7126 F       
  15 I15            7.2415     4.5350     3.5356 I       
  16 F16            3.2685    -2.0742     1.3514 F       
  17 C17           -0.2449     1.8161    -0.6231 C.2     
  18 O18           -0.9492     2.4481     0.1414 O.2     
  19 N19           -0.3091     2.0508    -1.9487 N.am    
  20 O20           -1.0169    -0.8823    -0.2929 O.3     
  21 C21           -1.3657    -2.1923    -0.1944 C.ar    
  22 C22           -1.6700    -2.7377     1.0437 C.ar    
  23 C23           -2.0262    -4.0748     1.1415 C.ar    
  24 C24           -2.0770    -4.8645    -0.0029 C.ar    
  25 C25           -1.7724    -4.3166    -1.2350 C.ar    
  26 C26           -1.4229    -2.9824    -1.3334 C.ar    
  27 N27           -2.3332    -4.6283     2.3884 N.am    
  28 S28           -1.5622    -4.0832     3.7488 S.o2    
  29 N29           -2.1084    -2.5471     4.0396 N.am    
  30 O30           -2.0301    -4.8857     4.8241 O.2     
  31 O31           -0.1874    -3.9627     3.4098 O.2     
  32 F32           -2.4237    -6.1670     0.0901 F       
  33 H33            0.7998    -2.5110     0.6421 H       
  34 H34            3.8645     0.4377     1.0106 H       
  35 H35            1.9837     3.0507    -0.5133 H       
  36 H36            3.2672     1.4326     2.4014 H       
  37 H37            5.1610     2.2525     3.7419 H       
  38 H38            5.8733     5.3305     0.8748 H       
  39 H39            0.2525     1.5469    -2.5582 H       
  40 H40           -0.9169     2.7237    -2.2932 H       
  41 H41           -1.6294    -2.1225     1.9305 H       
  42 H42           -1.8118    -4.9305    -2.1226 H       
  43 H43           -1.1901    -2.5557    -2.2978 H       
  44 H44           -2.9979    -5.3315     2.4565 H       
  45 H45           -2.7637    -2.1453     3.4480 H       
  46 H46           -1.7730    -2.0492     4.8015 H       
@<TRIPOS>BOND
   1    1    2 ar
   2    1    6 ar
   3    1   17 1
   4    2    3 ar
   5    2   20 1
   6    3    4 ar
   7    3   33 1
   8    4    5 ar
   9    4   16 1
  10    5    6 ar
  11    5   34 1
  12    6    7 1
  13    7    8 1
  14    7   35 1
  15    8    9 ar
  16    8   13 ar
  17    9   10 ar
  18    9   36 1
  19   10   11 ar
  20   10   37 1
  21   11   12 ar
  22   11   15 1
  23   12   13 ar
  24   12   38 1
  25   13   14 1
  26   17   18 2
  27   17   19 am
  28   19   39 1
  29   19   40 1
  30   20   21 1
  31   21   22 ar
  32   21   26 ar
  33   22   23 ar
  34   22   41 1
  35   23   24 ar
  36   23   27 1
  37   24   25 ar
  38   24   32 1
  39   25   26 ar
  40   25   42 1
  41   26   43 1
  42   27   28 am
  43   27   44 1
  44   28   29 am
  45   28   30 2
  46   28   31 2
  47   29   45 1
  48   29   46 1

#	End of record

