#	Name: ASD01881045
#	Creating user name:	WinNT
#	Creation time:	15. 06. 2019 19:41

#	Modifying user name:	WinNT
#	Modification time:	15. 06. 2019 19:41

#	Program:	/corina/corina34_cracker 3.40 0067  02.08.2006

@<TRIPOS>MOLECULE
ASD01881045
  47   49    0    0    0
SMALL
NO_CHARGES


@<TRIPOS>ATOM
   1 O1            -0.0177     1.4528     0.0100 O.3     
   2 C2             0.0021    -0.0041     0.0020 C.3     
   3 C3             1.5020    -0.3567    -0.0142 C.3     
   4 N4             2.1700     0.9538    -0.0135 N.am    
   5 C5             1.2374     1.9159     0.0005 C.2     
   6 C6            -0.6652    -0.5565     1.2632 C.3     
   7 O7            -2.0581    -0.2381     1.2435 O.3     
   8 O8             1.5070     3.1008     0.0039 O.2     
   9 C9             3.5539     1.1619    -0.0256 C.ar    
  10 C10            4.0633     2.4537    -0.0236 C.ar    
  11 C11            5.4295     2.6558    -0.0356 C.ar    
  12 C12            6.2899     1.5733    -0.0501 C.ar    
  13 C13            5.7858     0.2857    -0.0527 C.ar    
  14 C14            4.4206     0.0769    -0.0340 C.ar    
  15 C15           -2.8023    -0.6597     2.2996 C.ar    
  16 C16           -2.2043    -1.3652     3.3334 C.ar    
  17 C17           -2.9631    -1.7928     4.4059 C.ar    
  18 C18           -4.3172    -1.5181     4.4493 C.ar    
  19 C19           -4.9159    -0.8153     3.4198 C.ar    
  20 C20           -4.1606    -0.3803     2.3483 C.ar    
  21 C21           -6.3924    -0.5180     3.4701 C.3     
  22 C22           -6.6193     0.8214     4.1740 C.3     
  23 C23           -8.1047     1.1833     4.1153 C.3     
  24 C24           -6.1787     0.7107     5.6350 C.3     
  25 H25           -0.4904    -0.3880    -0.8914 H       
  26 H26            1.7715    -0.9243     0.8765 H       
  27 H27            1.7544    -0.9146    -0.9159 H       
  28 H28           -0.5402    -1.6388     1.2960 H       
  29 H29           -0.2029    -0.1105     2.1438 H       
  30 H30            3.3918     3.2996    -0.0129 H       
  31 H31            5.8263     3.6602    -0.0340 H       
  32 H32            7.3578     1.7339    -0.0598 H       
  33 H33            6.4603    -0.5577    -0.0647 H       
  34 H34            4.0275    -0.9290    -0.0360 H       
  35 H35           -1.1465    -1.5804     3.2997 H       
  36 H36           -2.4980    -2.3425     5.2109 H       
  37 H37           -4.9087    -1.8532     5.2886 H       
  38 H38           -4.6285     0.1689     1.5447 H       
  39 H39           -6.7875    -0.4667     2.4555 H       
  40 H40           -6.9037    -1.3084     4.0196 H       
  41 H41           -6.0365     1.5966     3.6765 H       
  42 H42           -8.6875     0.4080     4.6128 H       
  43 H43           -8.2663     2.1375     4.6168 H       
  44 H44           -8.4186     1.2621     3.0745 H       
  45 H45           -5.1204     0.4529     5.6768 H       
  46 H46           -6.3403     1.6649     6.1365 H       
  47 H47           -6.7614    -0.0645     6.1325 H       
@<TRIPOS>BOND
   1    1    2 1
   2    1    5 1
   3    2    3 1
   4    2    6 1
   5    2   25 1
   6    3    4 1
   7    3   26 1
   8    3   27 1
   9    4    5 am
  10    4    9 1
  11    5    8 2
  12    6    7 1
  13    6   28 1
  14    6   29 1
  15    7   15 1
  16    9   10 ar
  17    9   14 ar
  18   10   11 ar
  19   10   30 1
  20   11   12 ar
  21   11   31 1
  22   12   13 ar
  23   12   32 1
  24   13   14 ar
  25   13   33 1
  26   14   34 1
  27   15   16 ar
  28   15   20 ar
  29   16   17 ar
  30   16   35 1
  31   17   18 ar
  32   17   36 1
  33   18   19 ar
  34   18   37 1
  35   19   20 ar
  36   19   21 1
  37   20   38 1
  38   21   22 1
  39   21   39 1
  40   21   40 1
  41   22   23 1
  42   22   24 1
  43   22   41 1
  44   23   42 1
  45   23   43 1
  46   23   44 1
  47   24   45 1
  48   24   46 1
  49   24   47 1

#	End of record

