#	Name: ASD01209295
#	Creating user name:	WinNT
#	Creation time:	15. 06. 2019 19:11

#	Modifying user name:	WinNT
#	Modification time:	15. 06. 2019 19:11

#	Program:	/corina/corina34_cracker 3.40 0067  02.08.2006

@<TRIPOS>MOLECULE
ASD01209295
  65   68    0    0    0
SMALL
NO_CHARGES


@<TRIPOS>ATOM
   1 C1            -0.0508     1.5391     0.0679 C.3     
   2 N2             0.0373     0.0773     0.1060 N.am    
   3 C3             1.3349     2.1278     0.1337 C.2     
   4 O4             2.3009     1.3981     0.2054 O.2     
   5 N5             1.5006     3.4652     0.1129 N.am    
   6 C6             2.7722     4.0126     0.2765 C.ar    
   7 P7             6.9400     5.8528     2.5472 P.3     
   8 O8             5.8720     6.6325     3.2120 O.2     
   9 O9             8.3512     6.6038     2.7388 O.3     
  10 O10            7.0200     4.3846     3.2030 O.3     
  11 C11            7.1946     4.1666     4.6044 C.3     
  12 C12           -0.7291     1.9755    -1.2323 C.3     
  13 C13           -2.1698     1.4608    -1.2536 C.3     
  14 C14            2.9315     5.3924     0.3663 C.ar    
  15 C15            8.8732     6.9649     4.0191 C.3     
  16 N16            4.1370     5.9069     0.5216 N.ar    
  17 C17            5.1921     5.1133     0.5917 C.ar    
  18 C18            5.0375     3.7423     0.5023 C.ar    
  19 N19            3.8327     3.2196     0.3523 N.ar    
  20 C20            6.5669     5.7046     0.7690 C.3     
  21 C21           -2.9736     2.1490    -0.1485 C.3     
  22 C22           -4.4143     1.6343    -0.1698 C.3     
  23 C23           -5.0463     1.9438    -1.5283 C.3     
  24 C24           -4.2425     1.2556    -2.6334 C.3     
  25 C25           -2.8018     1.7702    -2.6121 C.3     
  26 C26            0.6011    -0.6978    -0.8364 C.2     
  27 C27            0.5022    -2.1199    -0.4557 C.ar    
  28 C28           -0.1532    -2.1992     0.7755 C.ar    
  29 C29           -0.4697    -0.7816     1.1822 C.3     
  30 C30            0.9260    -3.2928    -1.0826 C.ar    
  31 C31            0.6946    -4.5137    -0.4828 C.ar    
  32 C32            0.0446    -4.5808     0.7365 C.ar    
  33 C33           -0.3789    -3.4212     1.3648 C.ar    
  34 O34            1.1184    -0.2861    -1.8564 O.2     
  35 H35           -0.6355     1.8902     0.9183 H       
  36 H36            0.7351     4.0468    -0.0158 H       
  37 H37            8.1325     4.6179     4.9282 H       
  38 H38            6.3662     4.6200     5.1487 H       
  39 H39            7.2184     3.0955     4.8053 H       
  40 H40           -0.7311     3.0637    -1.2935 H       
  41 H41           -0.1839     1.5647    -2.0821 H       
  42 H42           -2.1732     0.3834    -1.0882 H       
  43 H43            2.0700     6.0411     0.3088 H       
  44 H44            9.8361     7.4596     3.8924 H       
  45 H45            8.1792     7.6425     4.5164 H       
  46 H46            9.0023     6.0680     4.6249 H       
  47 H47            5.9018     3.0972     0.5593 H       
  48 H48            6.6003     6.6914     0.3073 H       
  49 H49            7.3048     5.0569     0.2957 H       
  50 H50           -2.5233     1.9285     0.8194 H       
  51 H51           -2.9701     3.2264    -0.3139 H       
  52 H52           -4.4177     0.5569    -0.0044 H       
  53 H53           -4.9869     2.1246     0.6175 H       
  54 H54           -6.0727     1.5771    -1.5435 H       
  55 H55           -5.0429     3.0211    -1.6937 H       
  56 H56           -4.2459     0.1782    -2.4680 H       
  57 H57           -4.6928     1.4760    -3.6013 H       
  58 H58           -2.7984     2.8476    -2.7775 H       
  59 H59           -2.2292     1.2800    -3.3994 H       
  60 H60            0.0242    -0.5431     2.1242 H       
  61 H61           -1.5475    -0.6519     1.2805 H       
  62 H62            1.4335    -3.2449    -2.0348 H       
  63 H63            1.0221    -5.4214    -0.9679 H       
  64 H64           -0.1331    -5.5400     1.2000 H       
  65 H65           -0.8854    -3.4766     2.3170 H       
@<TRIPOS>BOND
   1    1    2 1
   2    1    3 1
   3    1   12 1
   4    1   35 1
   5    2   26 am
   6    2   29 1
   7    3    4 2
   8    3    5 am
   9    5    6 1
  10    5   36 1
  11    6   14 ar
  12    6   19 ar
  13    7    8 2
  14    7    9 1
  15    7   10 1
  16    7   20 1
  17    9   15 1
  18   10   11 1
  19   11   37 1
  20   11   38 1
  21   11   39 1
  22   12   13 1
  23   12   40 1
  24   12   41 1
  25   13   21 1
  26   13   25 1
  27   13   42 1
  28   14   16 ar
  29   14   43 1
  30   15   44 1
  31   15   45 1
  32   15   46 1
  33   16   17 ar
  34   17   18 ar
  35   17   20 1
  36   18   19 ar
  37   18   47 1
  38   20   48 1
  39   20   49 1
  40   21   22 1
  41   21   50 1
  42   21   51 1
  43   22   23 1
  44   22   52 1
  45   22   53 1
  46   23   24 1
  47   23   54 1
  48   23   55 1
  49   24   25 1
  50   24   56 1
  51   24   57 1
  52   25   58 1
  53   25   59 1
  54   26   27 1
  55   26   34 2
  56   27   28 ar
  57   27   30 ar
  58   28   29 1
  59   28   33 ar
  60   29   60 1
  61   29   61 1
  62   30   31 ar
  63   30   62 1
  64   31   32 ar
  65   31   63 1
  66   32   33 ar
  67   32   64 1
  68   33   65 1

#	End of record

