#	Name: ASD01816771
#	Creating user name:	WinNT
#	Creation time:	15. 06. 2019 19:35

#	Modifying user name:	WinNT
#	Modification time:	15. 06. 2019 19:35

#	Program:	/corina/corina34_cracker 3.40 0067  02.08.2006

@<TRIPOS>MOLECULE
ASD01816771
  60   64    0    0    0
SMALL
NO_CHARGES


@<TRIPOS>ATOM
   1 C1            -0.0168     1.3897     0.0097 C.ar    
   2 C2             0.0021    -0.0041     0.0020 C.ar    
   3 C3             1.1796    -0.6877    -0.0124 C.ar    
   4 C4             2.3927     0.0187    -0.0202 C.ar    
   5 C5             2.3768     1.4381    -0.0129 C.ar    
   6 C6             1.1385     2.1078     0.0025 C.ar    
   7 C7             3.6297    -0.6529    -0.0346 C.ar    
   8 C8             4.7711     0.0956    -0.0411 C.ar    
   9 C9             4.6871     1.4959    -0.0333 C.ar    
  10 N10            3.5238     2.1168    -0.0202 N.ar    
  11 C11            3.6922    -2.1586    -0.0422 C.3     
  12 C12            5.9353     2.2963    -0.0400 C.2     
  13 O13            7.0146     1.7386    -0.0521 O.2     
  14 N14            5.8725     3.6426    -0.0327 N.am    
  15 C15            7.1057     4.4335    -0.0393 C.3     
  16 C16            7.5905     4.6102    -1.4796 C.3     
  17 C17            6.8345     5.8062     0.5796 C.3     
  18 C18            8.1224     6.6321     0.5727 C.3     
  19 C19            8.6072     6.8088    -0.8677 C.3     
  20 C20            8.8784     5.4361    -1.4865 C.3     
  21 C21            3.5763    -2.6591    -1.4590 C.ar    
  22 C22            4.7094    -2.8409    -2.2294 C.ar    
  23 C23            2.3314    -2.9472    -2.0005 C.ar    
  24 C24            2.2682    -3.4049    -3.3049 C.ar    
  25 C25            3.4503    -3.5600    -4.0260 C.ar    
  26 N26            4.6213    -3.2780    -3.4696 N.ar    
  27 O27            6.3817     5.6411     1.9249 O.3     
  28 C28            3.3996    -4.0502    -5.4251 C.2     
  29 C29            2.2353    -4.3002    -6.1785 C.2     
  30 N30            2.6000    -4.7186    -7.3611 N.2     
  31 N31            3.9987    -4.7523    -7.4099 N.pl3   
  32 C32            4.4725    -4.3357    -6.2196 C.2     
  33 C33            4.8081    -5.1645    -8.5594 C.3     
  34 H34           -0.9643     1.9080     0.0170 H       
  35 H35           -0.9302    -0.5493     0.0080 H       
  36 H36            1.1803    -1.7677    -0.0175 H       
  37 H37            1.1059     3.1873     0.0079 H       
  38 H38            5.7363    -0.3889    -0.0518 H       
  39 H39            4.6417    -2.4850     0.3819 H       
  40 H40            2.8716    -2.5593     0.5529 H       
  41 H41            5.0108     4.0879    -0.0231 H       
  42 H42            7.8710     3.9180     0.5410 H       
  43 H43            7.7837     3.6322    -1.9206 H       
  44 H44            6.8252     5.1256    -2.0600 H       
  45 H45            6.0692     6.3216    -0.0007 H       
  46 H46            7.9292     7.6101     1.0136 H       
  47 H47            8.8877     6.1167     1.1530 H       
  48 H48            7.8419     7.3243    -1.4480 H       
  49 H49            9.5247     7.3973    -0.8726 H       
  50 H50            9.6437     4.9207    -0.9062 H       
  51 H51            9.2238     5.5620    -2.5127 H       
  52 H52            5.6799    -2.6215    -1.8095 H       
  53 H53            1.4320    -2.8174    -1.4168 H       
  54 H54            1.3159    -3.6390    -3.7576 H       
  55 H55            6.1900     6.4724     2.3801 H       
  56 H56            1.2189    -4.1691    -5.8376 H       
  57 H57            5.5126    -4.2489    -5.9422 H       
  58 H58            5.0207    -4.2968    -9.1839 H       
  59 H59            5.7446    -5.5974    -8.2078 H       
  60 H60            4.2610    -5.9060    -9.1417 H       
@<TRIPOS>BOND
   1    1    2 ar
   2    1    6 ar
   3    1   34 1
   4    2    3 ar
   5    2   35 1
   6    3    4 ar
   7    3   36 1
   8    4    5 ar
   9    4    7 ar
  10    5    6 ar
  11    5   10 ar
  12    6   37 1
  13    7    8 ar
  14    7   11 1
  15    8    9 ar
  16    8   38 1
  17    9   10 ar
  18    9   12 1
  19   11   21 1
  20   11   39 1
  21   11   40 1
  22   12   13 2
  23   12   14 am
  24   14   15 1
  25   14   41 1
  26   15   16 1
  27   15   17 1
  28   15   42 1
  29   16   20 1
  30   16   43 1
  31   16   44 1
  32   17   18 1
  33   17   27 1
  34   17   45 1
  35   18   19 1
  36   18   46 1
  37   18   47 1
  38   19   20 1
  39   19   48 1
  40   19   49 1
  41   20   50 1
  42   20   51 1
  43   21   22 ar
  44   21   23 ar
  45   22   26 ar
  46   22   52 1
  47   23   24 ar
  48   23   53 1
  49   24   25 ar
  50   24   54 1
  51   25   26 ar
  52   25   28 1
  53   27   55 1
  54   28   29 1
  55   28   32 2
  56   29   30 2
  57   29   56 1
  58   30   31 1
  59   31   32 1
  60   31   33 1
  61   32   57 1
  62   33   58 1
  63   33   59 1
  64   33   60 1

#	End of record

