#	Name: ASD01917392
#	Creating user name:	WinNT
#	Creation time:	15. 06. 2019 20:09

#	Modifying user name:	WinNT
#	Modification time:	15. 06. 2019 20:09

#	Program:	/corina/corina34_cracker 3.40 0067  02.08.2006

@<TRIPOS>MOLECULE
ASD01917392
  54   57    0    0    0
SMALL
NO_CHARGES


@<TRIPOS>ATOM
   1 C1            -0.0162     1.3436     0.0094 C.2     
   2 N2             0.0021    -0.0041     0.0020 N.am    
   3 O3             1.0277     1.9654     0.0028 O.2     
   4 O4            -1.1912     2.0008     0.0186 O.3     
   5 C5             1.2806    -0.7192    -0.0140 C.3     
   6 C6             2.1379    -0.3674    -1.2424 C.3     
   7 C7             3.5336    -0.9683    -1.0650 C.3     
   8 C8             3.4373    -2.4769    -0.8293 C.3     
   9 C9             2.5241    -2.7379     0.3813 C.3     
  10 C10            2.9388    -1.7496     1.4957 C.3     
  11 C11            2.1357    -0.4383     1.2431 C.3     
  12 C12            1.1037    -2.2607    -0.0211 C.3     
  13 C13            3.7286    -4.6862     1.2123 C.2     
  14 C14            3.7672    -6.0955     1.6580 C.ar    
  15 C15            4.9734    -6.6698     2.0619 C.ar    
  16 C16            5.0022    -7.9873     2.4771 C.ar    
  17 C17            3.8364    -8.7367     2.4925 C.ar    
  18 C18            2.6391    -8.1715     2.0930 C.ar    
  19 C19            2.5967    -6.8550     1.6818 C.ar    
  20 O20            4.7487    -4.0254     1.1973 O.2     
  21 N21            2.5623    -4.1343     0.8228 N.am    
  22 F22            6.1684    -8.5460     2.8682 F       
  23 C23           -1.1349     3.4517     0.0262 C.3     
  24 C24           -2.5351     4.0087     0.0359 C.ar    
  25 C25           -3.1717     4.2577     1.2374 C.ar    
  26 C26           -4.4561     4.7686     1.2463 C.ar    
  27 C27           -5.1038     5.0309     0.0536 C.ar    
  28 C28           -4.4670     4.7828    -1.1480 C.ar    
  29 C29           -3.1809     4.2760    -1.1568 C.ar    
  30 H30           -0.8313    -0.5005     0.0073 H       
  31 H31            1.6753    -0.7782    -2.1398 H       
  32 H32            2.2163     0.7159    -1.3342 H       
  33 H33            4.1239    -0.7803    -1.9618 H       
  34 H34            4.0219    -0.5002    -0.2103 H       
  35 H35            3.0180    -2.9580    -1.7129 H       
  36 H36            4.4307    -2.8790    -0.6302 H       
  37 H37            2.6862    -2.1599     2.4734 H       
  38 H38            4.0085    -1.5479     1.4385 H       
  39 H39            2.8186     0.3900     1.0543 H       
  40 H40            1.4908    -0.2071     2.0909 H       
  41 H41            0.3540    -2.5714     0.7066 H       
  42 H42            0.8507    -2.6205    -1.0184 H       
  43 H43            5.8819    -6.0860     2.0496 H       
  44 H44            3.8632    -9.7663     2.8173 H       
  45 H45            1.7341    -8.7607     2.1073 H       
  46 H46            1.6597    -6.4143     1.3745 H       
  47 H47            1.7483    -4.6616     0.8349 H       
  48 H48           -0.6031     3.7900     0.9155 H       
  49 H49           -0.6116     3.7997    -0.8644 H       
  50 H50           -2.6656     4.0527     2.1692 H       
  51 H51           -4.9537     4.9624     2.1850 H       
  52 H52           -6.1076     5.4294     0.0605 H       
  53 H53           -4.9732     4.9875    -2.0798 H       
  54 H54           -2.6820     4.0856    -2.0955 H       
@<TRIPOS>BOND
   1    1    2 am
   2    1    3 2
   3    1    4 1
   4    2    5 1
   5    2   30 1
   6    4   23 1
   7    5    6 1
   8    5   11 1
   9    5   12 1
  10    6    7 1
  11    6   31 1
  12    6   32 1
  13    7    8 1
  14    7   33 1
  15    7   34 1
  16    8    9 1
  17    8   35 1
  18    8   36 1
  19    9   10 1
  20    9   12 1
  21    9   21 1
  22   10   11 1
  23   10   37 1
  24   10   38 1
  25   11   39 1
  26   11   40 1
  27   12   41 1
  28   12   42 1
  29   13   14 1
  30   13   20 2
  31   13   21 am
  32   14   15 ar
  33   14   19 ar
  34   15   16 ar
  35   15   43 1
  36   16   17 ar
  37   16   22 1
  38   17   18 ar
  39   17   44 1
  40   18   19 ar
  41   18   45 1
  42   19   46 1
  43   21   47 1
  44   23   24 1
  45   23   48 1
  46   23   49 1
  47   24   25 ar
  48   24   29 ar
  49   25   26 ar
  50   25   50 1
  51   26   27 ar
  52   26   51 1
  53   27   28 ar
  54   27   52 1
  55   28   29 ar
  56   28   53 1
  57   29   54 1

#	End of record

