#	Name: ASD03091550
#	Creating user name:	WinNT
#	Creation time:	15. 06. 2019 20:30

#	Modifying user name:	WinNT
#	Modification time:	15. 06. 2019 20:30

#	Program:	/corina/corina34_cracker 3.40 0067  02.08.2006

@<TRIPOS>MOLECULE
ASD03091550
  42   43    0    0    0
SMALL
NO_CHARGES


@<TRIPOS>ATOM
   1 C1            -0.0167     1.3800     0.0096 C.ar    
   2 C2             0.0021    -0.0041     0.0020 C.ar    
   3 C3             1.2131    -0.6831    -0.0132 C.ar    
   4 C4             2.4059     0.0174    -0.0204 C.ar    
   5 C5             2.4014     1.3963    -0.0129 C.ar    
   6 C6             1.1870     2.0903     0.0020 C.ar    
   7 C7             1.1768     3.5621     0.0095 C.2     
   8 O8             0.1226     4.1610     0.0223 O.2     
   9 C9             2.4766     4.3247     0.0012 C.3     
  10 C10            2.1866     5.8269     0.0114 C.3     
  11 C11            3.4864     6.5895     0.0031 C.ar    
  12 C12            4.1233     6.8610    -1.1998 C.ar    
  13 C13            4.0401     7.0227     1.1924 C.ar    
  14 C14            5.2314     7.7230     1.1880 C.ar    
  15 C15            5.8745     7.9928    -0.0115 C.ar    
  16 C16            5.3186     7.5628    -1.2068 C.ar    
  17 O17            3.5758     6.4387    -2.3697 O.3     
  18 C18            4.2858     6.7535    -3.5692 C.3     
  19 O19            7.0458     8.6819    -0.0153 O.3     
  20 C20            7.5576     9.0982     1.2523 C.3     
  21 O21           -1.1659    -0.6990     0.0099 O.3     
  22 C22           -1.0725    -2.1249     0.0013 C.3     
  23 H23           -0.9582     1.9092     0.0170 H       
  24 H24            1.2239    -1.7630    -0.0191 H       
  25 H25            3.3441    -0.5175    -0.0315 H       
  26 H26            3.3346     1.9400    -0.0182 H       
  27 H27            3.0583     4.0609     0.8844 H       
  28 H28            3.0416     4.0698    -0.8954 H       
  29 H29            1.6049     6.0907    -0.8718 H       
  30 H30            1.6216     6.0817     0.9080 H       
  31 H31            3.5408     6.8140     2.1271 H       
  32 H32            5.6621     8.0609     2.1190 H       
  33 H33            5.8159     7.7748    -2.1418 H       
  34 H34            5.2787     6.3053    -3.5319 H       
  35 H35            3.7415     6.3598    -4.4276 H       
  36 H36            4.3788     7.8354    -3.6631 H       
  37 H37            6.8344     9.7525     1.7391 H       
  38 H38            7.7346     8.2232     1.8778 H       
  39 H39            8.4943     9.6364     1.1070 H       
  40 H40           -0.5449    -2.4491    -0.8957 H       
  41 H41           -0.5272    -2.4586     0.8841 H       
  42 H42           -2.0742    -2.5547     0.0090 H       
@<TRIPOS>BOND
   1    1    2 ar
   2    1    6 ar
   3    1   23 1
   4    2    3 ar
   5    2   21 1
   6    3    4 ar
   7    3   24 1
   8    4    5 ar
   9    4   25 1
  10    5    6 ar
  11    5   26 1
  12    6    7 1
  13    7    8 2
  14    7    9 1
  15    9   10 1
  16    9   27 1
  17    9   28 1
  18   10   11 1
  19   10   29 1
  20   10   30 1
  21   11   13 ar
  22   11   12 ar
  23   12   16 ar
  24   12   17 1
  25   13   14 ar
  26   13   31 1
  27   14   15 ar
  28   14   32 1
  29   15   16 ar
  30   15   19 1
  31   16   33 1
  32   17   18 1
  33   18   34 1
  34   18   35 1
  35   18   36 1
  36   19   20 1
  37   20   37 1
  38   20   38 1
  39   20   39 1
  40   21   22 1
  41   22   40 1
  42   22   41 1
  43   22   42 1

#	End of record

