#	Name: ASD03330435
#	Creating user name:	WinNT
#	Creation time:	15. 06. 2019 20:37

#	Modifying user name:	WinNT
#	Modification time:	15. 06. 2019 20:37

#	Program:	/corina/corina34_cracker 3.40 0067  02.08.2006

@<TRIPOS>MOLECULE
ASD03330435
  60   64    0    0    0
SMALL
NO_CHARGES


@<TRIPOS>ATOM
   1 C1            -0.8359     0.5241    -0.0848 C.3     
   2 N2            -0.6268    -0.9227    -0.2347 N.3     
   3 C3             0.0764    -1.2322    -1.4929 C.3     
   4 C4             1.2915    -0.3450    -1.5768 C.2     
   5 N5             1.4739     0.7626    -0.8003 N.pl3   
   6 C6             0.5032     1.2168     0.1993 C.3     
   7 C7             2.3776    -0.4537    -2.3809 C.2     
   8 N8             3.2081     0.5747    -2.0914 N.2     
   9 C9             2.6706     1.3080    -1.1419 C.2     
  10 C10            3.2679     2.5224    -0.5458 C.ar    
  11 C11            2.6117    -1.5028    -3.3888 C.2     
  12 O12            1.8377    -2.4360    -3.4862 O.2     
  13 C13            3.9980    -2.5251    -5.1283 C.3     
  14 N14            3.6833    -1.4283    -4.2027 N.am    
  15 C15           -1.9002    -1.6502    -0.1507 C.3     
  16 C16            3.2128     2.7255     0.8337 C.ar    
  17 C17            3.7719     3.8595     1.3844 C.ar    
  18 C18            4.3879     4.7973     0.5719 C.ar    
  19 C19            4.4464     4.6037    -0.7971 C.ar    
  20 C20            3.8949     3.4685    -1.3608 C.ar    
  21 F21            3.9520     3.2796    -2.6973 F       
  22 Cl22           5.0889     6.2218     1.2741 Cl      
  23 C23            5.4488    -2.9614    -4.9008 C.3     
  24 C24            6.3692    -1.7457    -5.0307 C.3     
  25 C25            6.0033    -0.7104    -3.9646 C.3     
  26 C26            4.5589    -0.2486    -4.1816 C.3     
  27 N27            7.7607    -2.1651    -4.8464 N.pl3   
  28 C28            8.7543    -2.1202    -5.7666 C.2     
  29 N29            9.8326    -2.5850    -5.1968 N.2     
  30 N30            9.5720    -2.9157    -3.9817 N.2     
  31 C31            8.3170    -2.6713    -3.7194 C.2     
  32 C32            7.6143    -2.9164    -2.4089 C.3     
  33 C33            8.6360    -1.6256    -7.1852 C.3     
  34 H34           -1.2636     0.9255    -1.0035 H       
  35 H35           -1.5212     0.7073     0.7428 H       
  36 H36            0.3829    -2.2782    -1.4961 H       
  37 H37           -0.5812    -1.0377    -2.3401 H       
  38 H38            0.3806     2.2976     0.1284 H       
  39 H39            0.8509     0.9501     1.1973 H       
  40 H40            3.3299    -3.3654    -4.9397 H       
  41 H41            3.8764    -2.1824    -6.1558 H       
  42 H42           -2.5913    -1.2606    -0.8982 H       
  43 H43           -1.7259    -2.7103    -0.3346 H       
  44 H44           -2.3285    -1.5195     0.8431 H       
  45 H45            2.7328     1.9959     1.4691 H       
  46 H46            3.7291     4.0171     2.4519 H       
  47 H47            4.9273     5.3387    -1.4255 H       
  48 H48            5.5481    -3.3879    -3.9026 H       
  49 H49            5.7251    -3.7082    -5.6451 H       
  50 H50            6.2511    -1.3049    -6.0206 H       
  51 H51            6.0974    -1.1581    -2.9753 H       
  52 H52            6.6744     0.1450    -4.0427 H       
  53 H53            4.4830     0.2798    -5.1319 H       
  54 H54            4.2608     0.4131    -3.3683 H       
  55 H55            7.6042    -1.9964    -1.8245 H       
  56 H56            6.5901    -3.2366    -2.6001 H       
  57 H57            8.1404    -3.6934    -1.8543 H       
  58 H58            8.8520    -0.5576    -7.2168 H       
  59 H59            9.3468    -2.1589    -7.8164 H       
  60 H60            7.6236    -1.8024    -7.5484 H       
@<TRIPOS>BOND
   1    1    2 1
   2    1    6 1
   3    1   34 1
   4    1   35 1
   5    2    3 1
   6    2   15 1
   7    3    4 1
   8    3   36 1
   9    3   37 1
  10    4    5 1
  11    4    7 2
  12    5    6 1
  13    5    9 1
  14    6   38 1
  15    6   39 1
  16    7    8 1
  17    7   11 1
  18    8    9 2
  19    9   10 1
  20   10   16 ar
  21   10   20 ar
  22   11   12 2
  23   11   14 am
  24   13   14 1
  25   13   23 1
  26   13   40 1
  27   13   41 1
  28   14   26 1
  29   15   42 1
  30   15   43 1
  31   15   44 1
  32   16   17 ar
  33   16   45 1
  34   17   18 ar
  35   17   46 1
  36   18   19 ar
  37   18   22 1
  38   19   20 ar
  39   19   47 1
  40   20   21 1
  41   23   24 1
  42   23   48 1
  43   23   49 1
  44   24   25 1
  45   24   27 1
  46   24   50 1
  47   25   26 1
  48   25   51 1
  49   25   52 1
  50   26   53 1
  51   26   54 1
  52   27   28 1
  53   27   31 1
  54   28   29 2
  55   28   33 1
  56   29   30 1
  57   30   31 2
  58   31   32 1
  59   32   55 1
  60   32   56 1
  61   32   57 1
  62   33   58 1
  63   33   59 1
  64   33   60 1

#	End of record

