#	Name: ASD01209195
#	Creating user name:	WinNT
#	Creation time:	15. 06. 2019 19:11

#	Modifying user name:	WinNT
#	Modification time:	15. 06. 2019 19:11

#	Program:	/corina/corina34_cracker 3.40 0067  02.08.2006

@<TRIPOS>MOLECULE
ASD01209195
  65   67    0    0    0
SMALL
NO_CHARGES


@<TRIPOS>ATOM
   1 O1             0.0313     0.7077     1.6923 O.3     
   2 O2             1.8055     1.8253     3.2784 O.3     
   3 C3             6.4170     8.9053     5.1272 C.ar    
   4 C4             7.6734     9.4255     4.8534 C.ar    
   5 C5             8.3550     9.0373     3.7088 C.ar    
   6 C6             7.7834     8.1275     2.8351 C.ar    
   7 C7             6.5195     7.6017     3.1067 C.ar    
   8 C8             5.8400     7.9908     4.2614 C.ar    
   9 O9             9.5854     9.5507     3.4448 O.3     
  10 C10            5.9050     6.6310     2.1765 C.2     
  11 N11            4.6843     6.1244     2.4407 N.am    
  12 O12            6.5006     6.2898     1.1733 O.2     
  13 C13            4.1068     5.2124     1.5666 C.2     
  14 P14            1.4152     1.5288     1.7448 P.3     
  15 O15            2.4869     0.7306     1.1085 O.2     
  16 C16            1.2203     3.1060     0.8516 C.3     
  17 N17            2.9418     4.6664     1.7260 N.2     
  18 S18            4.8258     4.6519     0.1203 S.3     
  19 C19            3.4191     3.6409    -0.1997 C.2     
  20 C20            2.5471     3.8184     0.7948 C.2     
  21 C21           -0.1086    -0.6158     2.2127 C.3     
  22 C22           -1.5453    -1.0977     2.0011 C.3     
  23 C23            2.1285     0.7934     4.2127 C.3     
  24 C24            2.4489     1.4183     5.5720 C.3     
  25 O25            5.7535     9.2892     6.2495 O.3     
  26 C26            4.4126     8.8197     6.4031 C.3     
  27 C27            4.4303     7.4167     7.0132 C.3     
  28 C28            3.6429     9.7672     7.3253 C.3     
  29 C29           10.1669    10.3889     4.4454 C.3     
  30 C30           11.7047    10.3808     4.3235 C.3     
  31 C31           12.0918    11.8470     4.0340 C.3     
  32 N32           10.9628    12.6462     4.5758 N.3     
  33 C33            9.7543    11.8592     4.2193 C.3     
  34 H34            8.1222    10.1349     5.5328 H       
  35 H35            8.3145     7.8261     1.9443 H       
  36 H36            4.8617     7.5863     4.4754 H       
  37 H37            4.2091     6.3967     3.2412 H       
  38 H38            0.8701     2.9088    -0.1616 H       
  39 H39            0.4943     3.7308     1.3718 H       
  40 H40            3.2843     2.9933    -1.0534 H       
  41 H41            0.5789    -1.2844     1.6947 H       
  42 H42            0.1206    -0.6133     3.2783 H       
  43 H43           -2.2328    -0.4290     2.5191 H       
  44 H44           -1.7745    -1.1002     0.9355 H       
  45 H45           -1.6520    -2.1072     2.3981 H       
  46 H46            1.2799     0.1170     4.3148 H       
  47 H47            2.9952     0.2376     3.8550 H       
  48 H48            1.5822     1.9741     5.9298 H       
  49 H49            2.6953     0.6312     6.2847 H       
  50 H50            3.2975     2.0947     5.4700 H       
  51 H51            3.9256     8.7860     5.4285 H       
  52 H52            4.9173     7.4504     7.9877 H       
  53 H53            3.4075     7.0585     7.1303 H       
  54 H54            4.9786     6.7416     6.3561 H       
  55 H55            3.6303    10.7667     6.8907 H       
  56 H56            2.6201     9.4090     7.4425 H       
  57 H57            4.1299     9.8009     8.2999 H       
  58 H58            9.8641    10.0575     5.4387 H       
  59 H59           12.1567    10.0472     5.2576 H       
  60 H60           12.0159     9.7375     3.5005 H       
  61 H61           13.0193    12.1034     4.5460 H       
  62 H62           12.1917    12.0090     2.9608 H       
  63 H63           11.0426    12.7531     5.5760 H       
  64 H64            9.4884    12.0232     3.1750 H       
  65 H65            8.9218    12.1249     4.8707 H       
@<TRIPOS>BOND
   1    1   21 1
   2    1   14 1
   3    2   23 1
   4    2   14 1
   5    3    4 ar
   6    3   25 1
   7    3    8 ar
   8    4    5 ar
   9    4   34 1
  10    5    6 ar
  11    5    9 1
  12    6    7 ar
  13    6   35 1
  14    7    8 ar
  15    7   10 1
  16    8   36 1
  17    9   29 1
  18   10   11 am
  19   10   12 2
  20   11   13 1
  21   11   37 1
  22   13   17 2
  23   13   18 1
  24   14   15 2
  25   14   16 1
  26   16   20 1
  27   16   38 1
  28   16   39 1
  29   17   20 1
  30   18   19 1
  31   19   20 2
  32   19   40 1
  33   21   22 1
  34   21   41 1
  35   21   42 1
  36   22   43 1
  37   22   44 1
  38   22   45 1
  39   23   24 1
  40   23   46 1
  41   23   47 1
  42   24   48 1
  43   24   49 1
  44   24   50 1
  45   25   26 1
  46   26   27 1
  47   26   28 1
  48   26   51 1
  49   27   52 1
  50   27   53 1
  51   27   54 1
  52   28   55 1
  53   28   56 1
  54   28   57 1
  55   29   30 1
  56   29   33 1
  57   29   58 1
  58   30   31 1
  59   30   59 1
  60   30   60 1
  61   31   32 1
  62   31   61 1
  63   31   62 1
  64   32   33 1
  65   32   63 1
  66   33   64 1
  67   33   65 1

#	End of record

