#	Name: ASD01811430
#	Creating user name:	WinNT
#	Creation time:	15. 06. 2019 19:26

#	Modifying user name:	WinNT
#	Modification time:	15. 06. 2019 19:26

#	Program:	/corina/corina34_cracker 3.40 0067  02.08.2006

@<TRIPOS>MOLECULE
ASD01811430
  58   60    0    0    0
SMALL
NO_CHARGES


@<TRIPOS>ATOM
   1 N1             1.8558     5.0044     1.5834 N.am    
   2 C2             2.6505     5.0821     2.6692 C.2     
   3 O3             3.4161     4.1738     2.9284 O.2     
   4 N4             2.5964     6.1665     3.4677 N.am    
   5 C5             3.4603     6.2509     4.6479 C.3     
   6 C6             3.2031     7.5725     5.3747 C.3     
   7 O7             1.8674     7.5849     5.8822 O.3     
   8 C8             1.5228     8.7820     6.5824 C.3     
   9 C9             0.8707     3.4412     0.0188 C.ar    
  10 C10            1.9811     3.9256     0.6999 C.ar    
  11 C11            3.2175     3.3258     0.4926 C.ar    
  12 C12            3.2904     2.2513    -0.4007 C.ar    
  13 C13            2.1268     1.8273    -1.0436 C.ar    
  14 N14            0.9762     2.4264    -0.8165 N.ar    
  15 C15           -0.4750     4.0817     0.2425 C.3     
  16 C16            4.5800     1.5761    -0.6597 C.2     
  17 O17            4.6401     0.3621    -0.6651 O.2     
  18 N18            5.6889     2.3067    -0.8897 N.am    
  19 C19            5.6545     3.7720    -0.7876 C.3     
  20 C20            6.1962     4.3699    -2.0899 C.3     
  21 C21            7.5847     3.7920    -2.3730 C.3     
  22 C22            7.4825     2.2746    -2.5440 C.3     
  23 C23            6.9567     1.6526    -1.2414 C.3     
  24 C24            8.1352     4.4035    -3.6356 C.ar    
  25 C25            9.3181     5.1200    -3.5948 C.ar    
  26 C26            9.8276     5.6824    -4.7467 C.ar    
  27 C27            9.1469     5.5269    -5.9559 C.ar    
  28 C28            7.9539     4.8022    -5.9900 C.ar    
  29 C29            7.4582     4.2410    -4.8313 C.ar    
  30 C30            9.6697     6.1084    -7.1556 C.1     
  31 N31           10.0844     6.5697    -8.1073 N.1     
  32 H32            1.1943     5.6939     1.4163 H       
  33 H33            1.9856     6.8911     3.2609 H       
  34 H34            3.2421     5.4193     5.3180 H       
  35 H35            4.5043     6.2037     4.3382 H       
  36 H36            3.9067     7.6757     6.2008 H       
  37 H37            3.3353     8.4013     4.6792 H       
  38 H38            2.1915     8.9103     7.4336 H       
  39 H39            1.6201     9.6359     5.9120 H       
  40 H40            0.4940     8.7129     6.9358 H       
  41 H41            4.0987     3.6799     1.0069 H       
  42 H42            2.1702     0.9990    -1.7353 H       
  43 H43           -0.6145     4.8929    -0.4721 H       
  44 H44           -1.2591     3.3372     0.1046 H       
  45 H45           -0.5246     4.4782     1.2566 H       
  46 H46            4.6277     4.1035    -0.6327 H       
  47 H47            6.2749     4.0947     0.0484 H       
  48 H48            5.5243     4.1214    -2.9114 H       
  49 H49            6.2661     5.4531    -1.9915 H       
  50 H50            8.2496     4.0196    -1.5398 H       
  51 H51            6.7985     2.0458    -3.3612 H       
  52 H52            8.4679     1.8666    -2.7687 H       
  53 H53            7.6812     1.8061    -0.4415 H       
  54 H54            6.7895     0.5853    -1.3859 H       
  55 H55            9.8436     5.2395    -2.6588 H       
  56 H56           10.7507     6.2421    -4.7134 H       
  57 H57            7.4223     4.6781    -6.9219 H       
  58 H58            6.5377     3.6768    -4.8569 H       
@<TRIPOS>BOND
   1    1    2 am
   2    1   10 1
   3    1   32 1
   4    2    3 2
   5    2    4 am
   6    4    5 1
   7    4   33 1
   8    5    6 1
   9    5   34 1
  10    5   35 1
  11    6    7 1
  12    6   36 1
  13    6   37 1
  14    7    8 1
  15    8   38 1
  16    8   39 1
  17    8   40 1
  18    9   10 ar
  19    9   14 ar
  20    9   15 1
  21   10   11 ar
  22   11   12 ar
  23   11   41 1
  24   12   13 ar
  25   12   16 1
  26   13   14 ar
  27   13   42 1
  28   15   43 1
  29   15   44 1
  30   15   45 1
  31   16   17 2
  32   16   18 am
  33   18   19 1
  34   18   23 1
  35   19   20 1
  36   19   46 1
  37   19   47 1
  38   20   21 1
  39   20   48 1
  40   20   49 1
  41   21   22 1
  42   21   24 1
  43   21   50 1
  44   22   23 1
  45   22   51 1
  46   22   52 1
  47   23   53 1
  48   23   54 1
  49   24   25 ar
  50   24   29 ar
  51   25   26 ar
  52   25   55 1
  53   26   27 ar
  54   26   56 1
  55   27   28 ar
  56   27   30 1
  57   28   29 ar
  58   28   57 1
  59   29   58 1
  60   30   31 3

#	End of record

