#	Name: ASD01918536
#	Creating user name:	WinNT
#	Creation time:	15. 06. 2019 20:11

#	Modifying user name:	WinNT
#	Modification time:	15. 06. 2019 20:11

#	Program:	/corina/corina34_cracker 3.40 0067  02.08.2006

@<TRIPOS>MOLECULE
ASD01918536
  30   32    0    0    0
SMALL
NO_CHARGES


@<TRIPOS>ATOM
   1 F1             0.0012    -0.0037    -0.0425 F       
   2 C2            -0.0170     1.3471    -0.0262 C.ar    
   3 C3            -1.2248     2.0325     0.0040 C.ar    
   4 C4            -1.1983     3.4166     0.0198 C.ar    
   5 C5             0.0312     4.0707     0.0050 C.ar    
   6 N6             1.1637     3.3801    -0.0239 N.ar    
   7 C7             1.1700     2.0638    -0.0337 C.ar    
   8 C8             0.0750     5.5535     0.0211 C.ar    
   9 C9             1.2962     6.2258     0.0008 C.ar    
  10 C10            1.2806     7.6217     0.0168 C.ar    
  11 N11            0.1082     8.2534     0.0507 N.ar    
  12 C12           -1.0233     7.5795     0.0689 C.ar    
  13 N13           -1.0525     6.2633     0.0497 N.ar    
  14 C14            2.5490     8.3891    -0.0031 C.ar    
  15 C15            3.7674     7.7229     0.0704 C.ar    
  16 C16            4.9569     8.4508     0.0513 C.ar    
  17 C17            4.9189     9.8448    -0.0416 C.ar    
  18 C18            3.7070    10.5014    -0.1138 C.ar    
  19 Cl19           3.6671    12.2331    -0.2283 Cl      
  20 C20            2.5225     9.7829    -0.1014 C.ar    
  21 F21            1.3397    10.4311    -0.1790 F       
  22 C22            6.2150     7.7711     0.1271 C.1     
  23 N23            7.2130     7.2318     0.1872 N.1     
  24 H24           -2.1632     1.4979     0.0146 H       
  25 H25           -2.1185     3.9814     0.0430 H       
  26 H26            2.1117     1.5354    -0.0523 H       
  27 H27            2.2287     5.6817    -0.0263 H       
  28 H28           -1.9560     8.1233     0.0963 H       
  29 H29            3.7925     6.6456     0.1424 H       
  30 H30            5.8395    10.4092    -0.0564 H       
@<TRIPOS>BOND
   1    1    2 1
   2    2    7 ar
   3    2    3 ar
   4    3    4 ar
   5    3   24 1
   6    4    5 ar
   7    4   25 1
   8    5    6 ar
   9    5    8 1
  10    6    7 ar
  11    7   26 1
  12    8   13 ar
  13    8    9 ar
  14    9   10 ar
  15    9   27 1
  16   10   11 ar
  17   10   14 1
  18   11   12 ar
  19   12   13 ar
  20   12   28 1
  21   14   20 ar
  22   14   15 ar
  23   15   16 ar
  24   15   29 1
  25   16   17 ar
  26   16   22 1
  27   17   18 ar
  28   17   30 1
  29   18   19 1
  30   18   20 ar
  31   20   21 1
  32   22   23 3

#	End of record

