#	Name: ASD04660035
#	Creating user name:	WinNT
#	Creation time:	15. 06. 2019 20:52

#	Modifying user name:	WinNT
#	Modification time:	15. 06. 2019 20:52

#	Program:	/corina/corina34_cracker 3.40 0067  02.08.2006

@<TRIPOS>MOLECULE
ASD04660035
  45   47    0    0    0
SMALL
NO_CHARGES


@<TRIPOS>ATOM
   1 C1            -0.7461    -0.3331     0.0471 C.ar    
   2 C2            -0.5578    -1.5617    -0.5669 C.ar    
   3 C3             0.7239    -2.0892    -0.6084 C.ar    
   4 C4             1.7636    -1.3778    -0.0406 C.ar    
   5 N5             1.5474    -0.2115     0.5358 N.ar    
   6 C6             0.3423     0.3206     0.5935 C.ar    
   7 C7             3.1607    -1.9415    -0.0799 C.3     
   8 S8             3.9953    -1.3808    -1.5849 S.3     
   9 C9             5.5597    -2.1645    -1.3773 C.2     
  10 N10            5.7718    -2.9049    -0.3023 N.2     
  11 C11            6.9283    -3.5155    -0.0982 C.2     
  12 C12            7.9568    -3.3823    -1.0330 C.2     
  13 C13            7.7236    -2.5854    -2.1866 C.2     
  14 N14            6.5168    -1.9970    -2.3299 N.am    
  15 C15            6.2412    -1.1690    -3.5066 C.3     
  16 O16            8.5915    -2.4400    -3.0292 O.2     
  17 C17            9.2482    -4.0490    -0.8290 C.2     
  18 O18            9.4725    -4.6352     0.2136 O.2     
  19 N19           10.1859    -4.0121    -1.7965 N.am    
  20 C20           11.4563    -4.5468    -1.5598 C.ar    
  21 C21           12.0124    -4.4817    -0.2886 C.ar    
  22 C22           13.2677    -5.0095    -0.0550 C.ar    
  23 C23           13.9729    -5.6031    -1.0843 C.ar    
  24 C24           13.4219    -5.6715    -2.3565 C.ar    
  25 C25           12.1608    -5.1483    -2.5936 C.ar    
  26 O26           14.1168    -6.2557    -3.3678 O.3     
  27 C27           15.4083    -6.7784    -3.0503 C.3     
  28 H28           -1.7300     0.1098     0.0939 H       
  29 H29           -1.3897    -2.0954    -1.0021 H       
  30 H30            0.9073    -3.0442    -1.0784 H       
  31 H31            0.2041     1.2780     1.0739 H       
  32 H32            3.7158    -1.5980     0.7929 H       
  33 H33            3.1133    -3.0305    -0.0749 H       
  34 H34            7.0760    -4.1143     0.7885 H       
  35 H35            7.1217    -1.1456    -4.1487 H       
  36 H36            5.4004    -1.5897    -4.0581 H       
  37 H37            5.9965    -0.1555    -3.1885 H       
  38 H38            9.9795    -3.6146    -2.6569 H       
  39 H39           11.4634    -4.0179     0.5176 H       
  40 H40           13.6987    -4.9577     0.9339 H       
  41 H41           14.9542    -6.0142    -0.8987 H       
  42 H42           11.7304    -5.2009    -3.5827 H       
  43 H43           16.0457    -5.9739    -2.6835 H       
  44 H44           15.3111    -7.5445    -2.2810 H       
  45 H45           15.8531    -7.2156    -3.9442 H       
@<TRIPOS>BOND
   1    1    2 ar
   2    1    6 ar
   3    1   28 1
   4    2    3 ar
   5    2   29 1
   6    3    4 ar
   7    3   30 1
   8    4    5 ar
   9    4    7 1
  10    5    6 ar
  11    6   31 1
  12    7    8 1
  13    7   32 1
  14    7   33 1
  15    8    9 1
  16    9   10 2
  17    9   14 1
  18   10   11 1
  19   11   12 2
  20   11   34 1
  21   12   13 1
  22   12   17 1
  23   13   14 am
  24   13   16 2
  25   14   15 1
  26   15   35 1
  27   15   36 1
  28   15   37 1
  29   17   18 2
  30   17   19 am
  31   19   20 1
  32   19   38 1
  33   20   21 ar
  34   20   25 ar
  35   21   22 ar
  36   21   39 1
  37   22   23 ar
  38   22   40 1
  39   23   24 ar
  40   23   41 1
  41   24   25 ar
  42   24   26 1
  43   25   42 1
  44   26   27 1
  45   27   43 1
  46   27   44 1
  47   27   45 1

#	End of record

