#	Name: ASD01310061
#	Creating user name:	WinNT
#	Creation time:	15. 06. 2019 19:15

#	Modifying user name:	WinNT
#	Modification time:	15. 06. 2019 19:15

#	Program:	/corina/corina34_cracker 3.40 0067  02.08.2006

@<TRIPOS>MOLECULE
ASD01310061
  46   47    0    0    0
SMALL
NO_CHARGES


@<TRIPOS>ATOM
   1 C1            -0.0007     1.4146    -0.0612 C.ar    
   2 C2             0.0577     0.1196     0.4403 C.ar    
   3 C3             1.2533    -0.5635     0.4504 C.ar    
   4 C4             2.4087     0.0468    -0.0448 C.ar    
   5 C5             2.3457     1.3487    -0.5484 C.ar    
   6 C6             1.1463     2.0252    -0.5546 C.ar    
   7 O7            -1.1820     2.0826    -0.0741 O.3     
   8 C8            -1.1889    -0.5377     0.9740 C.3     
   9 C9            -1.4809    -1.8062     0.1699 C.3     
  10 C10           -0.9830    -0.9027     2.4455 C.3     
  11 C11            1.0773     3.4295    -1.0971 C.3     
  12 C12            2.0089     4.3349    -0.2888 C.3     
  13 C13            1.5109     3.4313    -2.5643 C.3     
  14 C14            3.6925    -0.6816    -0.0354 C.2     
  15 O15            3.7503    -1.8171    -0.4660 O.2     
  16 N16            4.8006    -0.0880     0.4506 N.am    
  17 C17            6.0741    -0.8196     0.5411 C.3     
  18 C18            4.7741     1.3128     0.9006 C.3     
  19 C19            5.3894     1.3818     2.3030 C.3     
  20 O20            6.6688     0.7440     2.2875 O.3     
  21 C21            6.6287    -0.6510     1.9603 C.3     
  22 H22            1.2981    -1.5695     0.8408 H       
  23 H23            3.2366     1.8240    -0.9316 H       
  24 H24           -1.3524     2.5958     0.7275 H       
  25 H25           -2.0293     0.1507     0.8846 H       
  26 H26           -2.3826    -2.2816     0.5560 H       
  27 H27           -1.6276    -1.5461    -0.8784 H       
  28 H28           -0.6405    -2.4945     0.2594 H       
  29 H29           -0.7750     0.0011     3.0183 H       
  30 H30           -1.8847    -1.3780     2.8316 H       
  31 H31           -0.1426    -1.5910     2.5349 H       
  32 H32            0.0547     3.7989    -1.0200 H       
  33 H33            1.9589     5.3506    -0.6812 H       
  34 H34            1.6999     4.3336     0.7565 H       
  35 H35            3.0315     3.9655    -0.3659 H       
  36 H36            0.8472     2.7863    -3.1402 H       
  37 H37            1.4610     4.4470    -2.9567 H       
  38 H38            2.5335     3.0619    -2.6414 H       
  39 H39            5.9056    -1.8767     0.3361 H       
  40 H40            6.7828    -0.4135    -0.1806 H       
  41 H41            5.3542     1.9299     0.2144 H       
  42 H42            3.7443     1.6684     0.9337 H       
  43 H43            5.5060     2.4245     2.5985 H       
  44 H44            4.7372     0.8723     3.0122 H       
  45 H45            5.9832    -1.1715     2.6677 H       
  46 H46            7.6348    -1.0674     2.0098 H       
@<TRIPOS>BOND
   1    1    2 ar
   2    1    6 ar
   3    1    7 1
   4    2    3 ar
   5    2    8 1
   6    3    4 ar
   7    3   22 1
   8    4    5 ar
   9    4   14 1
  10    5    6 ar
  11    5   23 1
  12    6   11 1
  13    7   24 1
  14    8    9 1
  15    8   10 1
  16    8   25 1
  17    9   26 1
  18    9   27 1
  19    9   28 1
  20   10   29 1
  21   10   30 1
  22   10   31 1
  23   11   12 1
  24   11   13 1
  25   11   32 1
  26   12   33 1
  27   12   34 1
  28   12   35 1
  29   13   36 1
  30   13   37 1
  31   13   38 1
  32   14   15 2
  33   14   16 am
  34   16   18 1
  35   16   17 1
  36   17   21 1
  37   17   39 1
  38   17   40 1
  39   18   19 1
  40   18   41 1
  41   18   42 1
  42   19   20 1
  43   19   43 1
  44   19   44 1
  45   20   21 1
  46   21   45 1
  47   21   46 1

#	End of record

