#	Name: ASD02560388
#	Creating user name:	WinNT
#	Creation time:	15. 06. 2019 20:25

#	Modifying user name:	WinNT
#	Modification time:	15. 06. 2019 20:25

#	Program:	/corina/corina34_cracker 3.40 0067  02.08.2006

@<TRIPOS>MOLECULE
ASD02560388
  51   54    0    0    0
SMALL
NO_CHARGES


@<TRIPOS>ATOM
   1 C1             0.1360     1.3887     1.1085 C.2     
   2 C2             0.1570    -0.0175     1.0957 C.2     
   3 C3             1.2854    -0.6789     0.7695 C.2     
   4 N4             2.4259     0.0060     0.4462 N.pl3   
   5 C5             2.4355     1.3822     0.4496 C.2     
   6 C6             1.2597     2.0842     0.7897 C.2     
   7 C7             3.6783    -0.4086     0.0861 C.2     
   8 C8             4.4300     0.7281    -0.1239 C.2     
   9 N9             3.6442     1.7958     0.1057 N.2     
  10 C10            5.8544     0.7669    -0.5313 C.ar    
  11 N11            4.1123    -1.7289    -0.0436 N.3     
  12 C12            2.9889    -2.6671     0.0818 C.3     
  13 C13            3.3297    -3.9705    -0.6435 C.3     
  14 C14            6.7397    -0.2058    -0.0691 C.ar    
  15 C15            8.0664    -0.1687    -0.4492 C.ar    
  16 C16            8.5213     0.8343    -1.2908 C.ar    
  17 C17            7.6416     1.8086    -1.7562 C.ar    
  18 C18            6.3105     1.7734    -1.3825 C.ar    
  19 O19            9.8293     0.8673    -1.6624 O.3     
  20 C20           10.6761    -0.1624    -1.1479 C.3     
  21 C21            7.1333     3.7578    -3.0204 C.3     
  22 O22            8.0905     2.7918    -2.5815 O.3     
  23 C23            2.7310    -2.9592     1.5613 C.3     
  24 C24            1.5610    -3.9363     1.6919 C.3     
  25 C25            1.9017    -5.2397     0.9666 C.3     
  26 C26            2.1596    -4.9477    -0.5129 C.3     
  27 H27           -0.7714     1.9144     1.3665 H       
  28 H28           -0.7355    -0.5703     1.3490 H       
  29 H29            1.2899    -1.7589     0.7634 H       
  30 H30            1.2523     3.1642     0.7962 H       
  31 H31            4.6014    -1.8648    -0.9156 H       
  32 H32            2.0964    -2.2267    -0.3626 H       
  33 H33            3.5134    -3.7624    -1.6976 H       
  34 H34            4.2222    -4.4109    -0.1991 H       
  35 H35            6.3877    -0.9883     0.5868 H       
  36 H36            8.7512    -0.9225    -0.0898 H       
  37 H37            5.6271     2.5280    -1.7429 H       
  38 H38           10.6799    -0.1192    -0.0588 H       
  39 H39           10.3041    -1.1344    -1.4717 H       
  40 H40           11.6903    -0.0189    -1.5208 H       
  41 H41            7.6214     4.4834    -3.6711 H       
  42 H42            6.3362     3.2561    -3.5691 H       
  43 H43            6.7121     4.2708    -2.1557 H       
  44 H44            3.6236    -3.3996     2.0057 H       
  45 H45            2.4883    -2.0306     2.0780 H       
  46 H46            1.3772    -4.1444     2.7459 H       
  47 H47            0.6684    -3.4959     1.2475 H       
  48 H48            2.7943    -5.6802     1.4110 H       
  49 H49            1.0681    -5.9359     1.0596 H       
  50 H50            1.2671    -4.5072    -0.9573 H       
  51 H51            2.4024    -5.8762    -1.0296 H       
@<TRIPOS>BOND
   1    1    2 1
   2    1    6 2
   3    1   27 1
   4    2    3 2
   5    2   28 1
   6    3    4 1
   7    3   29 1
   8    4    5 1
   9    4    7 1
  10    5    6 1
  11    5    9 2
  12    6   30 1
  13    7    8 2
  14    7   11 1
  15    8    9 1
  16    8   10 1
  17   10   14 ar
  18   10   18 ar
  19   11   12 1
  20   11   31 1
  21   12   13 1
  22   12   23 1
  23   12   32 1
  24   13   26 1
  25   13   33 1
  26   13   34 1
  27   14   15 ar
  28   14   35 1
  29   15   16 ar
  30   15   36 1
  31   16   17 ar
  32   16   19 1
  33   17   18 ar
  34   17   22 1
  35   18   37 1
  36   19   20 1
  37   20   38 1
  38   20   39 1
  39   20   40 1
  40   21   22 1
  41   21   41 1
  42   21   42 1
  43   21   43 1
  44   23   24 1
  45   23   44 1
  46   23   45 1
  47   24   25 1
  48   24   46 1
  49   24   47 1
  50   25   26 1
  51   25   48 1
  52   25   49 1
  53   26   50 1
  54   26   51 1

#	End of record

