#	Name: ASD02930001
#	Creating user name:	WinNT
#	Creation time:	15. 06. 2019 20:26

#	Modifying user name:	WinNT
#	Modification time:	15. 06. 2019 20:26

#	Program:	/corina/corina34_cracker 3.40 0067  02.08.2006

@<TRIPOS>MOLECULE
ASD02930001
 112  115    0    0    0
SMALL
NO_CHARGES


@<TRIPOS>ATOM
   1 C1            11.1634    -1.2712     7.0731 C.3     
   2 C2            10.9801    -2.5776     6.2948 C.3     
   3 C3            10.3267    -2.2673     4.9445 C.3     
   4 C4             8.9997    -1.5421     5.1832 C.3     
   5 O5             9.2377    -0.3524     5.9383 O.3     
   6 C6             9.8041    -0.5844     7.2296 C.3     
   7 O7            11.1948    -1.4335     4.1744 O.3     
   8 O8            12.2537    -3.1890     6.0803 O.3     
   9 O9             8.9312    -1.4229     7.9892 O.3     
  10 C10            7.6544    -0.8404     8.2584 C.3     
  11 C11            6.6128    -1.9487     8.4322 C.3     
  12 O12            5.3493    -1.3663     8.7584 O.3     
  13 C13            5.3475    -0.6215     9.9780 C.3     
  14 C14            6.3383     0.5402     9.8663 C.3     
  15 C15            7.7298    -0.0147     9.5464 C.3     
  16 O16            4.0363    -0.1079    10.2209 O.3     
  17 C17            3.0756    -1.1073    10.5676 C.3     
  18 C18            3.1187    -1.3565    12.0783 C.3     
  19 C19            2.7198    -0.0703    12.8084 C.3     
  20 C20            1.3330     0.3689    12.3313 C.3     
  21 O21            1.3545     0.5534    10.9144 O.3     
  22 C22            1.6751    -0.6279    10.1770 C.3     
  23 O23            0.3734    -0.6354    12.6666 O.3     
  24 C24           -0.9831    -0.2332    12.4664 C.3     
  25 C25           -1.8564    -1.4710    12.2450 C.3     
  26 O26           -3.2207    -1.0705    12.1027 O.3     
  27 C27           -3.7556    -0.4038    13.2479 C.3     
  28 C28           -2.9586     0.8769    13.5096 C.3     
  29 C29           -1.4819     0.5193    13.7039 C.3     
  30 O30            8.1719    -0.8456    10.6217 O.3     
  31 C31            6.4883    -2.7409     7.1292 C.3     
  32 O32            5.5659    -3.8168     7.3121 O.3     
  33 N33            5.9137     1.4445     8.7948 N.am    
  34 S34            4.9993     2.7785     9.1509 S.o2    
  35 O35            4.7850     3.4579     7.9214 O.2     
  36 O36            3.9406     2.3282     9.9849 O.2     
  37 O37            5.8587     3.6985    10.0063 O.3     
  38 O38            2.2045    -2.4014    12.4167 O.3     
  39 O39            2.6862    -0.3114    14.2166 O.3     
  40 S40            3.1345     0.8746    15.0585 S.o2    
  41 S41            9.0460    -0.1275    11.6398 S.o2    
  42 O42            9.5532    -1.1292    12.5108 O.2     
  43 O43            9.8797     0.7551    10.9014 O.2     
  44 O44            8.1299     0.7498    12.4811 O.3     
  45 O45           11.7057    -1.5564     8.3641 O.3     
  46 S46           12.6698    -0.4970     8.8785 S.o2    
  47 O47           13.2581    -1.0285    10.0578 O.2     
  48 O48           13.4292    -0.0671     7.7569 O.2     
  49 O49           11.8347     0.6979     9.3157 O.3     
  50 O50            3.2320     0.4035    16.3956 O.2     
  51 O51            4.2207     1.4721    14.3638 O.2     
  52 O52            2.0026     1.8919    15.0427 O.3     
  53 O53           -1.3389    -0.3110    14.8581 O.3     
  54 N54           -3.0969     1.7819    12.3659 N.am    
  55 C55           -4.1560     2.6116    12.2873 C.2     
  56 O56           -5.1252    -0.0726    13.0101 O.3     
  57 C57           -1.4023    -2.1954    10.9762 C.3     
  58 O58           -2.1499    -3.4038    10.8242 O.3     
  59 S59           -1.8422    -4.1651     9.5427 S.o2    
  60 O60           -2.7695    -5.2401     9.4821 O.2     
  61 O61           -1.7149    -3.1897     8.5172 O.2     
  62 O62           -0.4662    -4.7934     9.7113 O.3     
  63 O63           -4.9946     2.6091    13.1634 O.2     
  64 C64           -4.2982     3.5426    11.1108 C.3     
  65 C65            1.6413    -0.3240     8.7014 C.2     
  66 O66            1.4556     0.8080     8.3218 O.2     
  67 O67            1.8174    -1.3108     7.8087 O.3     
  68 C68            8.3791    -1.1808     3.8583 C.2     
  69 O69            8.2673    -0.0206     3.5399 O.2     
  70 O70            7.9505    -2.1478     3.0320 O.3     
  71 H71           11.8433    -0.6155     6.5292 H       
  72 H72           10.3407    -3.2536     6.8625 H       
  73 H73           10.1420    -3.1974     4.4070 H       
  74 H74            8.3234    -2.1942     5.7359 H       
  75 H75            9.9347     0.3668     7.7455 H       
  76 H76           10.8437    -1.1969     3.3050 H       
  77 H77           12.2126    -4.0227     5.5920 H       
  78 H78            7.3656    -0.1961     7.4280 H       
  79 H79            6.9234    -2.6167     9.2356 H       
  80 H80            5.6416    -1.2721    10.8016 H       
  81 H81            6.3710     1.0832    10.8109 H       
  82 H82            8.4289     0.8104     9.4102 H       
  83 H83            3.3055    -2.0324    10.0391 H       
  84 H84            4.1282    -1.6443    12.3718 H       
  85 H85            3.4454     0.7129    12.5892 H       
  86 H86            1.0621     1.3070    12.8159 H       
  87 H87            0.9476    -1.4071    10.4046 H       
  88 H88           -1.0452     0.4172    11.5939 H       
  89 H89           -1.7613    -2.1405    13.0998 H       
  90 H90           -3.6854    -1.0594    14.1159 H       
  91 H91           -3.3367     1.3639    14.4085 H       
  92 H92           -0.9000     1.4316    13.8350 H       
  93 H93            6.1279    -2.0839     6.3376 H       
  94 H94            7.4637    -3.1414     6.8529 H       
  95 H95            5.3792    -4.3163     6.5054 H       
  96 H96            6.1681     1.2619     7.8767 H       
  97 H97            5.4156     4.5157    10.2724 H       
  98 H98            2.1798    -2.6122    13.3601 H       
  99 H99            8.5892     1.2551    13.1659 H       
 100 H100          12.3550     1.4355     9.6626 H       
 101 H101           2.1862     2.6925    15.5531 H       
 102 H102          -1.6425     0.1006    15.6787 H       
 103 H103          -2.4261     1.7839    11.6652 H       
 104 H104          -5.6903    -0.8376    12.8356 H       
 105 H105          -1.5698    -1.5533    10.1114 H       
 106 H106          -0.3411    -2.4320    11.0529 H       
 107 H107          -0.1387    -5.2414     8.9194 H       
 108 H108          -3.4559     3.4030    10.4331 H       
 109 H109          -5.2277     3.3242    10.5850 H       
 110 H110          -4.3138     4.5739    11.4633 H       
 111 H111           1.8622    -1.0568     6.8767 H       
 112 H112           7.5594    -1.8672     2.1933 H       
@<TRIPOS>BOND
   1    1    2 1
   2    1   45 1
   3    1    6 1
   4    1   71 1
   5    2    3 1
   6    2    8 1
   7    2   72 1
   8    3    4 1
   9    3    7 1
  10    3   73 1
  11    4    5 1
  12    4   68 1
  13    4   74 1
  14    5    6 1
  15    6    9 1
  16    6   75 1
  17    7   76 1
  18    8   77 1
  19    9   10 1
  20   10   11 1
  21   10   15 1
  22   10   78 1
  23   11   12 1
  24   11   31 1
  25   11   79 1
  26   12   13 1
  27   13   14 1
  28   13   16 1
  29   13   80 1
  30   14   15 1
  31   14   33 1
  32   14   81 1
  33   15   30 1
  34   15   82 1
  35   16   17 1
  36   17   18 1
  37   17   22 1
  38   17   83 1
  39   18   19 1
  40   18   38 1
  41   18   84 1
  42   19   20 1
  43   19   39 1
  44   19   85 1
  45   20   21 1
  46   20   23 1
  47   20   86 1
  48   21   22 1
  49   22   65 1
  50   22   87 1
  51   23   24 1
  52   24   25 1
  53   24   29 1
  54   24   88 1
  55   25   26 1
  56   25   57 1
  57   25   89 1
  58   26   27 1
  59   27   28 1
  60   27   56 1
  61   27   90 1
  62   28   29 1
  63   28   54 1
  64   28   91 1
  65   29   53 1
  66   29   92 1
  67   30   41 1
  68   31   32 1
  69   31   93 1
  70   31   94 1
  71   32   95 1
  72   33   34 am
  73   33   96 1
  74   34   35 2
  75   34   36 2
  76   34   37 1
  77   37   97 1
  78   38   98 1
  79   39   40 1
  80   40   50 2
  81   40   51 2
  82   40   52 1
  83   41   42 2
  84   41   43 2
  85   41   44 1
  86   44   99 1
  87   45   46 1
  88   46   47 2
  89   46   48 2
  90   46   49 1
  91   49  100 1
  92   52  101 1
  93   53  102 1
  94   54   55 am
  95   54  103 1
  96   55   63 2
  97   55   64 1
  98   56  104 1
  99   57   58 1
 100   57  105 1
 101   57  106 1
 102   58   59 1
 103   59   60 2
 104   59   61 2
 105   59   62 1
 106   62  107 1
 107   64  108 1
 108   64  109 1
 109   64  110 1
 110   65   66 2
 111   65   67 1
 112   67  111 1
 113   68   69 2
 114   68   70 1
 115   70  112 1

#	End of record

