#	Name: ASD02038044
#	Creating user name:	WinNT
#	Creation time:	15. 06. 2019 20:16

#	Modifying user name:	WinNT
#	Modification time:	15. 06. 2019 20:16

#	Program:	/corina/corina34_cracker 3.40 0067  02.08.2006

@<TRIPOS>MOLECULE
ASD02038044
  50   52    0    0    0
SMALL
NO_CHARGES


@<TRIPOS>ATOM
   1 C1            -0.0184     1.5028     0.0103 C.3     
   2 N2             1.6237     3.3527     0.0046 N.am    
   3 C3             1.3954     2.0244    -0.0004 C.2     
   4 C4             2.2598     6.9217     2.2327 C.3     
   5 O5             1.3216     7.9903     2.0913 O.3     
   6 C6             1.3510     8.9668     3.0371 C.ar    
   7 C7             0.4677    10.0334     2.9604 C.ar    
   8 C8             2.2604     8.8933     4.0818 C.ar    
   9 C9             2.2902     9.8853     5.0426 C.ar    
  10 C10            1.4110    10.9550     4.9625 C.ar    
  11 C11            0.4975    11.0254     3.9212 C.ar    
  12 O12            2.3278     1.2489    -0.0135 O.2     
  13 O13            1.4398    11.9311     5.9088 O.3     
  14 C14            0.0021    -0.0041     0.0020 C.ar    
  15 C15            2.9964     3.8764    -0.0057 C.3     
  16 C16            3.1614     4.8503     1.1652 C.3     
  17 C17            2.0772     5.9273     1.0843 C.3     
  18 C18            0.6975     5.2736     1.1905 C.3     
  19 C19            0.5045     4.3045     0.0142 C.3     
  20 C20            0.0229    -0.7012     1.1953 C.ar    
  21 C21            0.0416    -2.0835     1.1884 C.ar    
  22 C22            0.0396    -2.7689    -0.0132 C.ar    
  23 C23            0.0187    -2.0704    -1.2075 C.ar    
  24 C24           -0.0057    -0.6887    -1.1992 C.ar    
  25 Cl25           0.0637    -4.5047    -0.0227 Cl      
  26 C26            0.0169    -2.8163    -2.5169 C.3     
  27 H27           -0.5286     1.8543     0.9071 H       
  28 H28           -0.5455     1.8639    -0.8728 H       
  29 H29            3.2732     7.3223     2.2087 H       
  30 H30            2.0921     6.4143     3.1828 H       
  31 H31           -0.2432    10.0885     2.1492 H       
  32 H32            2.9450     8.0603     4.1442 H       
  33 H33            2.9978     9.8277     5.8564 H       
  34 H34           -0.1868    11.8585     3.8585 H       
  35 H35            2.0379    12.6621     5.7018 H       
  36 H36            3.7025     3.0529     0.1016 H       
  37 H37            3.1812     4.3988    -0.9444 H       
  38 H38            3.0659     4.3078     2.1058 H       
  39 H39            4.1442     5.3188     1.1130 H       
  40 H40            2.1577     6.4529     0.1328 H       
  41 H41            0.6252     4.7272     2.1308 H       
  42 H42           -0.0734     6.0434     1.1563 H       
  43 H43            0.4858     4.8642    -0.9210 H       
  44 H44           -0.4333     3.7628     0.1371 H       
  45 H45            0.0248    -0.1660     2.1334 H       
  46 H46            0.0582    -2.6281     2.1208 H       
  47 H47           -0.0219    -0.1434    -2.1313 H       
  48 H48           -1.0110    -3.0105    -2.8231 H       
  49 H49            0.5154    -2.2158    -3.2779 H       
  50 H50            0.5451    -3.7622    -2.3970 H       
@<TRIPOS>BOND
   1    1   14 1
   2    1    3 1
   3    1   27 1
   4    1   28 1
   5    2    3 am
   6    2   15 1
   7    2   19 1
   8    3   12 2
   9    4    5 1
  10    4   17 1
  11    4   29 1
  12    4   30 1
  13    5    6 1
  14    6    7 ar
  15    6    8 ar
  16    7   11 ar
  17    7   31 1
  18    8    9 ar
  19    8   32 1
  20    9   10 ar
  21    9   33 1
  22   10   11 ar
  23   10   13 1
  24   11   34 1
  25   13   35 1
  26   14   20 ar
  27   14   24 ar
  28   15   16 1
  29   15   36 1
  30   15   37 1
  31   16   17 1
  32   16   38 1
  33   16   39 1
  34   17   18 1
  35   17   40 1
  36   18   19 1
  37   18   41 1
  38   18   42 1
  39   19   43 1
  40   19   44 1
  41   20   21 ar
  42   20   45 1
  43   21   22 ar
  44   21   46 1
  45   22   23 ar
  46   22   25 1
  47   23   24 ar
  48   23   26 1
  49   24   47 1
  50   26   48 1
  51   26   49 1
  52   26   50 1

#	End of record

