#	Name: ASD08150262
#	Creating user name:	WinNT
#	Creation time:	15. 06. 2019 21:15

#	Modifying user name:	WinNT
#	Modification time:	15. 06. 2019 21:15

#	Program:	/corina/corina34_cracker 3.40 0067  02.08.2006

@<TRIPOS>MOLECULE
ASD08150262
  42   46    0    0    0
SMALL
NO_CHARGES


@<TRIPOS>ATOM
   1 N1            -0.0155     1.2942     0.0092 N.2     
   2 C2             0.0021    -0.0041     0.0020 C.2     
   3 N3             1.1487    -0.7361    -0.0129 N.am    
   4 C4             2.3560    -0.1245    -0.0206 C.2     
   5 C5             2.3702     1.3455    -0.0129 C.ar    
   6 C6             3.5601     2.0709    -0.0203 C.ar    
   7 C7             3.5158     3.4477    -0.0130 C.ar    
   8 C8             2.2978     4.1151     0.0021 C.ar    
   9 C9             1.1111     3.4174     0.0097 C.ar    
  10 C10            1.1297     2.0210     0.0021 C.ar    
  11 O11            3.3901    -0.7667    -0.0331 O.2     
  12 C12           -1.3145    -0.7373     0.0112 C.3     
  13 S13           -2.6718     0.4600     0.0311 S.3     
  14 C14           -4.8968    -2.7865     0.0346 C.ar    
  15 N15           -6.1448    -2.3714     0.0495 N.ar    
  16 C16           -6.4286    -1.0698     0.0599 C.ar    
  17 C17           -5.3678    -0.1433     0.0546 C.ar    
  18 C18           -4.0491    -0.6389     0.0389 C.ar    
  19 N19           -3.8695    -1.9561     0.0290 N.ar    
  20 N20           -7.2403     1.0174     0.0794 N.2     
  21 N21           -7.5806    -0.3413     0.0753 N.pl3   
  22 C22           -5.9439     1.1450     0.0674 C.2     
  23 C23            1.0791    -2.1353    -0.0197 C.ar    
  24 C24            1.0560    -2.8374     1.1796 C.ar    
  25 C25            0.9874    -4.2176     1.1688 C.ar    
  26 C26            0.9422    -4.8995    -0.0336 C.ar    
  27 C27            0.9656    -4.2034    -1.2279 C.ar    
  28 C28            1.0274    -2.8232    -1.2242 C.ar    
  29 Cl29           1.1138    -1.9818     2.6890 Cl      
  30 H30            4.5102     1.5573    -0.0314 H       
  31 H31            4.4360     4.0130    -0.0188 H       
  32 H32            2.2815     5.1950     0.0084 H       
  33 H33            0.1702     3.9474     0.0218 H       
  34 H34           -1.3908    -1.3582    -0.8815 H       
  35 H35           -1.3731    -1.3677     0.8984 H       
  36 H36           -4.7042    -3.8492     0.0311 H       
  37 H37           -8.4811    -0.7018     0.0819 H       
  38 H38           -5.4016     2.0790     0.0678 H       
  39 H39            0.9694    -4.7642     2.1001 H       
  40 H40            0.8890    -5.9781    -0.0395 H       
  41 H41            0.9309    -4.7391    -2.1650 H       
  42 H42            1.0403    -2.2803    -2.1577 H       
@<TRIPOS>BOND
   1    1    2 2
   2    1   10 1
   3    2    3 1
   4    2   12 1
   5    3    4 am
   6    3   23 1
   7    4    5 1
   8    4   11 2
   9    5    6 ar
  10    5   10 ar
  11    6    7 ar
  12    6   30 1
  13    7    8 ar
  14    7   31 1
  15    8    9 ar
  16    8   32 1
  17    9   10 ar
  18    9   33 1
  19   12   13 1
  20   12   34 1
  21   12   35 1
  22   13   18 1
  23   14   15 ar
  24   14   19 ar
  25   14   36 1
  26   15   16 ar
  27   16   17 ar
  28   16   21 1
  29   17   18 ar
  30   17   22 1
  31   18   19 ar
  32   20   21 1
  33   20   22 2
  34   21   37 1
  35   22   38 1
  36   23   24 ar
  37   23   28 ar
  38   24   25 ar
  39   24   29 1
  40   25   26 ar
  41   25   39 1
  42   26   27 ar
  43   26   40 1
  44   27   28 ar
  45   27   41 1
  46   28   42 1

#	End of record

