#	Name: ASD02588009
#	Creating user name:	WinNT
#	Creation time:	15. 06. 2019 20:25

#	Modifying user name:	WinNT
#	Modification time:	15. 06. 2019 20:25

#	Program:	/corina/corina34_cracker 3.40 0067  02.08.2006

@<TRIPOS>MOLECULE
ASD02588009
  38   40    0    0    0
SMALL
NO_CHARGES


@<TRIPOS>ATOM
   1 C1             0.2840     1.3238     0.0244 C.2     
   2 N2             0.2400    -0.0508    -0.0099 N.pl3   
   3 N3            -1.0030    -0.6851     0.1259 N.2     
   4 C4            -2.0915     0.0316     0.2816 C.2     
   5 N5            -2.0602     1.3668     0.3164 N.2     
   6 C6            -0.9259     2.0349     0.2007 C.2     
   7 C7             1.6085     1.7239    -0.1287 C.2     
   8 C8             2.3814     0.5712    -0.2582 C.2     
   9 C9             1.5146    -0.5249    -0.1821 C.2     
  10 N10           -0.9232     3.4151     0.2402 N.pl3   
  11 N11            2.0805     3.0491    -0.1490 N.pl3   
  12 N12            3.7676     0.5196    -0.4320 N.pl3   
  13 N13           -3.3119    -0.6172     0.4137 N.pl3   
  14 C14            1.8883    -1.8842    -0.2683 C.2     
  15 O15            3.0576    -2.1854    -0.4233 O.2     
  16 O16            0.9487    -2.8496    -0.1789 O.3     
  17 C17            1.3978    -4.2029    -0.2744 C.3     
  18 C18            0.2184    -5.1332    -0.1539 C.ar    
  19 C19           -0.4710    -5.5254    -1.2861 C.ar    
  20 C20           -1.5529    -6.3788    -1.1756 C.ar    
  21 C21           -1.9450    -6.8404     0.0670 C.ar    
  22 C22           -1.2551    -6.4489     1.1991 C.ar    
  23 C23           -0.1705    -5.5989     1.0882 C.ar    
  24 H24           -1.7619     3.9022     0.2296 H       
  25 H25           -0.0826     3.8976     0.2785 H       
  26 H26            1.4520     3.7875    -0.1714 H       
  27 H27            3.0345     3.2243    -0.1407 H       
  28 H28            4.2823     1.3407    -0.4719 H       
  29 H29            4.2146    -0.3375    -0.5128 H       
  30 H30           -3.3512    -1.5861     0.3902 H       
  31 H31           -4.1253    -0.1015     0.5295 H       
  32 H32            1.8852    -4.3568    -1.2371 H       
  33 H33            2.1060    -4.4081     0.5284 H       
  34 H34           -0.1646    -5.1648    -2.2569 H       
  35 H35           -2.0919    -6.6847    -2.0600 H       
  36 H36           -2.7907    -7.5065     0.1534 H       
  37 H37           -1.5617    -6.8092     2.1700 H       
  38 H38            0.3708    -5.2960     1.9722 H       
@<TRIPOS>BOND
   1    1    2 1
   2    1    7 2
   3    1    6 1
   4    2    3 1
   5    2    9 1
   6    3    4 2
   7    4    5 1
   8    4   13 1
   9    5    6 2
  10    6   10 1
  11    7    8 1
  12    7   11 1
  13    8    9 2
  14    8   12 1
  15    9   14 1
  16   10   24 1
  17   10   25 1
  18   11   26 1
  19   11   27 1
  20   12   28 1
  21   12   29 1
  22   13   30 1
  23   13   31 1
  24   14   15 2
  25   14   16 1
  26   16   17 1
  27   17   18 1
  28   17   32 1
  29   17   33 1
  30   18   19 ar
  31   18   23 ar
  32   19   20 ar
  33   19   34 1
  34   20   21 ar
  35   20   35 1
  36   21   22 ar
  37   21   36 1
  38   22   23 ar
  39   22   37 1
  40   23   38 1

#	End of record

