#	Name: ASD01917523
#	Creating user name:	WinNT
#	Creation time:	15. 06. 2019 20:09

#	Modifying user name:	WinNT
#	Modification time:	15. 06. 2019 20:09

#	Program:	/corina/corina34_cracker 3.40 0067  02.08.2006

@<TRIPOS>MOLECULE
ASD01917523
  50   54    0    0    0
SMALL
NO_CHARGES


@<TRIPOS>ATOM
   1 C1            -0.0171     1.4090     0.0098 C.ar    
   2 C2             0.0021    -0.0041     0.0020 C.ar    
   3 C3            -1.1909    -0.7239     0.0401 C.ar    
   4 C4            -2.3837    -0.0598     0.0717 C.ar    
   5 C5            -2.4197     1.3393     0.0667 C.ar    
   6 C6            -1.2425     2.0754     0.0362 C.ar    
   7 N7             1.1593     2.0744     0.0021 N.2     
   8 C8             2.3197     1.4675    -0.0393 C.2     
   9 N9             2.4209     0.1195    -0.1563 N.am    
  10 C10            1.3114    -0.6634    -0.0614 C.2     
  11 O11            1.4029    -1.8768    -0.0299 O.2     
  12 C12           -3.7254     2.0414     0.0944 C.ar    
  13 C13            3.5351     2.3458     0.1019 C.3     
  14 C14            4.7919     1.6936    -0.4305 C.3     
  15 C15            4.8973     0.2376    -0.0256 C.3     
  16 C16            3.6808    -0.5616    -0.4345 C.3     
  17 C17            6.1359    -0.3722    -0.6851 C.3     
  18 C18            5.0565     0.1557     1.4939 C.3     
  19 N19           -4.8416     1.3254     0.1234 N.ar    
  20 C20           -6.0231     1.9136     0.1490 C.ar    
  21 C21           -6.0862     3.3108     0.1452 C.ar    
  22 C22           -4.8864     4.0289     0.1142 C.ar    
  23 N23           -3.7441     3.3676     0.0948 N.ar    
  24 C24           -7.3918     4.0128     0.1728 C.ar    
  25 N25           -8.5166     3.3096     0.2016 N.ar    
  26 C26           -9.6966     3.8950     0.2272 C.ar    
  27 C27           -9.8056     5.2733     0.2249 C.ar    
  28 C28           -8.6538     6.0472     0.1953 C.ar    
  29 C29           -7.4276     5.4062     0.1742 C.ar    
  30 H30           -1.1720    -1.8037     0.0442 H       
  31 H31           -3.3072    -0.6190     0.1004 H       
  32 H32           -1.2753     3.1549     0.0336 H       
  33 H33            3.3631     3.2746    -0.4419 H       
  34 H34            3.6797     2.5796     1.1567 H       
  35 H35            4.7905     1.7589    -1.5185 H       
  36 H36            5.6590     2.2311    -0.0468 H       
  37 H37            3.6904    -1.5112     0.1004 H       
  38 H38            3.7394    -0.7650    -1.5038 H       
  39 H39            7.0247     0.1666    -0.3569 H       
  40 H40            6.2205    -1.4207    -0.3995 H       
  41 H41            6.0448    -0.2969    -1.7686 H       
  42 H42            4.1904     0.6100     1.9750 H       
  43 H43            5.1332    -0.8890     1.7954 H       
  44 H44            5.9594     0.6877     1.7938 H       
  45 H45           -6.9279     1.3244     0.1722 H       
  46 H46           -4.8944     5.1089     0.1103 H       
  47 H47          -10.5910     3.2900     0.2498 H       
  48 H48          -10.7777     5.7433     0.2457 H       
  49 H49           -8.7132     7.1256     0.1926 H       
  50 H50           -6.5113     5.9774     0.1509 H       
@<TRIPOS>BOND
   1    1    2 ar
   2    1    7 1
   3    1    6 ar
   4    2    3 ar
   5    2   10 1
   6    3    4 ar
   7    3   30 1
   8    4    5 ar
   9    4   31 1
  10    5    6 ar
  11    5   12 1
  12    6   32 1
  13    7    8 2
  14    8    9 1
  15    8   13 1
  16    9   10 am
  17    9   16 1
  18   10   11 2
  19   12   19 ar
  20   12   23 ar
  21   13   14 1
  22   13   33 1
  23   13   34 1
  24   14   15 1
  25   14   35 1
  26   14   36 1
  27   15   16 1
  28   15   17 1
  29   15   18 1
  30   16   37 1
  31   16   38 1
  32   17   39 1
  33   17   40 1
  34   17   41 1
  35   18   42 1
  36   18   43 1
  37   18   44 1
  38   19   20 ar
  39   20   21 ar
  40   20   45 1
  41   21   22 ar
  42   21   24 1
  43   22   23 ar
  44   22   46 1
  45   24   25 ar
  46   24   29 ar
  47   25   26 ar
  48   26   27 ar
  49   26   47 1
  50   27   28 ar
  51   27   48 1
  52   28   29 ar
  53   28   49 1
  54   29   50 1

#	End of record

