#	Name: ASD00431058
#	Creating user name:	WinNT
#	Creation time:	15. 06. 2019 18:35

#	Modifying user name:	WinNT
#	Modification time:	15. 06. 2019 18:35

#	Program:	/corina/corina34_cracker 3.40 0067  02.08.2006

@<TRIPOS>MOLECULE
ASD00431058
  72   76    0    0    0
SMALL
NO_CHARGES


@<TRIPOS>ATOM
   1 C1            -0.0448     1.5947     0.0210 C.2     
   2 C2            -0.0020     0.0785    -0.0490 C.3     
   3 C3            -1.4313    -0.3401     0.3664 C.3     
   4 C4            -2.2224     0.9449     0.2919 C.2     
   5 N5            -1.3967     1.9594     0.0182 N.am    
   6 C6            -1.9933    -1.3739    -0.6114 C.3     
   7 O7            -3.4205     1.0407     0.4548 O.2     
   8 C8            -3.3187    -1.8787    -0.1018 C.2     
   9 O9            -3.9991    -2.7971    -0.8004 O.3     
  10 O10           -3.7692    -1.4535     0.9403 O.2     
  11 C11           -1.8610     3.3211    -0.2581 C.3     
  12 N12           -5.0638    -3.1663    -0.3383 N.am    
  13 C13           -6.2255    -2.5665    -0.6262 C.2     
  14 C14           -1.9405     4.0962     1.0319 C.ar    
  15 C15           -0.8412     4.8083     1.4768 C.ar    
  16 C16           -0.9085     5.5198     2.6575 C.ar    
  17 C17           -2.0865     5.5199     3.4016 C.ar    
  18 C18           -3.1907     4.8008     2.9488 C.ar    
  19 C19           -3.1142     4.0974     1.7638 C.ar    
  20 C20           -2.1646     6.2827     4.6721 C.ar    
  21 C21           -3.3426     6.2828     5.4163 C.ar    
  22 C22           -3.4098     6.9941     6.5972 C.ar    
  23 C23           -2.3106     7.7062     7.0421 C.ar    
  24 C24           -1.1388     7.7099     6.3070 C.ar    
  25 C25           -1.0585     6.9968     5.1281 C.ar    
  26 C26            0.9322     2.4257     0.0284 C.2     
  27 C27            2.4097     2.2904     0.0915 C.3     
  28 C28            2.8237     1.2325     1.0961 C.3     
  29 C29            2.4020    -0.1522     0.6849 C.3     
  30 C30            0.9871    -0.4910     0.9538 C.3     
  31 C31           -7.3450    -3.2705     0.1092 C.3     
  32 C32           -6.6211    -4.3932     0.8801 C.3     
  33 C33           -5.1694    -4.2089     0.4949 C.2     
  34 O34           -4.2470    -4.8928     0.8847 O.2     
  35 O35           -6.3594    -1.6101    -1.3598 O.2     
  36 C36            0.3159    -0.3898    -1.4456 C.2     
  37 O37            0.3705     0.4070    -2.3523 O.2     
  38 O38            0.5384    -1.6922    -1.6824 O.3     
  39 C39            1.0609    -3.5834    -3.1248 C.3     
  40 C40            0.8391    -2.0714    -3.0514 C.3     
  41 H41           -1.4344    -0.7327     1.3832 H       
  42 H42           -2.1319    -0.9119    -1.5888 H       
  43 H43           -1.2965    -2.2075    -0.6991 H       
  44 H44           -1.1623     3.8129    -0.9350 H       
  45 H45           -2.8475     3.2820    -0.7198 H       
  46 H46            0.0714     4.8072     0.8993 H       
  47 H47           -0.0496     6.0752     3.0041 H       
  48 H48           -4.1062     4.7976     3.5217 H       
  49 H49           -3.9694     3.5397     1.4118 H       
  50 H50           -4.2017     5.7277     5.0695 H       
  51 H51           -4.3223     6.9948     7.1748 H       
  52 H52           -2.3676     8.2617     7.9665 H       
  53 H53           -0.2837     8.2680     6.6588 H       
  54 H54           -0.1430     7.0001     4.5551 H       
  55 H55            0.6075     3.4545    -0.0231 H       
  56 H56            2.7851     2.0135    -0.8937 H       
  57 H57            2.8436     3.2473     0.3815 H       
  58 H58            3.9083     1.2533     1.2028 H       
  59 H59            2.3724     1.4664     2.0603 H       
  60 H60            2.5761    -0.2600    -0.3857 H       
  61 H61            3.0343    -0.8719     1.2048 H       
  62 H62            0.7191    -0.1092     1.9390 H       
  63 H63            0.8852    -1.5761     0.9649 H       
  64 H64           -7.8391    -2.5876     0.8002 H       
  65 H65           -8.0626    -3.6903    -0.5958 H       
  66 H66           -6.7551    -4.2687     1.9547 H       
  67 H67           -6.9786    -5.3714     0.5587 H       
  68 H68            1.2866    -3.8681    -4.1525 H       
  69 H69            1.8948    -3.8601    -2.4797 H       
  70 H70            0.1593    -4.0994    -2.7946 H       
  71 H71            0.0052    -1.7947    -3.6965 H       
  72 H72            1.7406    -1.5554    -3.3817 H       
@<TRIPOS>BOND
   1    1    2 1
   2    1   26 2
   3    1    5 1
   4    2   36 1
   5    2    3 1
   6    2   30 1
   7    3    4 1
   8    3    6 1
   9    3   41 1
  10    4    5 am
  11    4    7 2
  12    5   11 1
  13    6    8 1
  14    6   42 1
  15    6   43 1
  16    8    9 1
  17    8   10 2
  18    9   12 1
  19   11   14 1
  20   11   44 1
  21   11   45 1
  22   12   13 am
  23   12   33 am
  24   13   31 1
  25   13   35 2
  26   14   15 ar
  27   14   19 ar
  28   15   16 ar
  29   15   46 1
  30   16   17 ar
  31   16   47 1
  32   17   18 ar
  33   17   20 1
  34   18   19 ar
  35   18   48 1
  36   19   49 1
  37   20   21 ar
  38   20   25 ar
  39   21   22 ar
  40   21   50 1
  41   22   23 ar
  42   22   51 1
  43   23   24 ar
  44   23   52 1
  45   24   25 ar
  46   24   53 1
  47   25   54 1
  48   26   27 1
  49   26   55 1
  50   27   28 1
  51   27   56 1
  52   27   57 1
  53   28   29 1
  54   28   58 1
  55   28   59 1
  56   29   30 1
  57   29   60 1
  58   29   61 1
  59   30   62 1
  60   30   63 1
  61   31   32 1
  62   31   64 1
  63   31   65 1
  64   32   33 1
  65   32   66 1
  66   32   67 1
  67   33   34 2
  68   36   37 2
  69   36   38 1
  70   38   40 1
  71   39   40 1
  72   39   68 1
  73   39   69 1
  74   39   70 1
  75   40   71 1
  76   40   72 1

#	End of record

