#	Name: ASD07931280
#	Creating user name:	WinNT
#	Creation time:	15. 06. 2019 21:13

#	Modifying user name:	WinNT
#	Modification time:	15. 06. 2019 21:13

#	Program:	/corina/corina34_cracker 3.40 0067  02.08.2006

@<TRIPOS>MOLECULE
ASD07931280
  47   50    0    0    0
SMALL
NO_CHARGES


@<TRIPOS>ATOM
   1 N1            -0.0161     1.3349     0.0094 N.pl3   
   2 C2             0.0021    -0.0041     0.0020 C.2     
   3 C3             1.1800    -0.7235    -0.0127 C.2     
   4 C4             2.4584     0.0058    -0.0210 C.2     
   5 C5             2.3933     1.4792    -0.0130 C.ar    
   6 C6             3.5540     2.2528    -0.0195 C.ar    
   7 C7             3.4562     3.6265    -0.0112 C.ar    
   8 C8             2.2112     4.2396     0.0036 C.ar    
   9 C9             1.0568     3.4882     0.0101 C.ar    
  10 C10            1.1317     2.0975     0.0025 C.ar    
  11 C11            1.1580    -2.1931    -0.0194 C.2     
  12 O12            0.0963    -2.7852    -0.0120 O.2     
  13 O13            2.3151    -2.8845    -0.0338 O.3     
  14 C14           -1.3118     2.0184     0.0191 C.3     
  15 C15           -1.7495     2.2451     1.4433 C.ar    
  16 C16           -1.3908     3.4087     2.0985 C.ar    
  17 C17           -1.7904     3.6193     3.4037 C.ar    
  18 C18           -2.5534     2.6614     4.0577 C.ar    
  19 C19           -2.9124     1.4942     3.3971 C.ar    
  20 C20           -2.5138     1.2915     2.0903 C.ar    
  21 N21           -2.9601     2.8720     5.3826 N.pl3   
  22 N22           -2.6708     3.9975     6.1649 N.2     
  23 C23           -3.2197     3.8304     7.3411 C.2     
  24 C24           -3.8759     2.5946     7.3467 C.2     
  25 C25           -3.7062     2.0273     6.1299 C.2     
  26 O26            3.5253    -0.5827    -0.0336 O.2     
  27 C27            2.2175    -4.3332    -0.0397 C.3     
  28 C28            3.6223    -4.9390    -0.0561 C.3     
  29 H29           -0.9362    -0.5389     0.0081 H       
  30 H30            4.5237     1.7774    -0.0306 H       
  31 H31            4.3523     4.2293    -0.0158 H       
  32 H32            2.1468     5.3177     0.0103 H       
  33 H33            0.0940     3.9773     0.0213 H       
  34 H34           -1.2203     2.9779    -0.4899 H       
  35 H35           -2.0508     1.4036    -0.4946 H       
  36 H36           -0.7972     4.1535     1.5892 H       
  37 H37           -1.5093     4.5280     3.9152 H       
  38 H38           -3.5059     0.7472     3.9033 H       
  39 H39           -2.7959     0.3854     1.5746 H       
  40 H40           -3.1736     4.5263     8.1657 H       
  41 H41           -4.4245     2.1703     8.1746 H       
  42 H42           -4.0949     1.0707     5.8133 H       
  43 H43            1.6889    -4.6654     0.8538 H       
  44 H44            1.6718    -4.6569    -0.9261 H       
  45 H45            4.1509    -4.6068    -0.9496 H       
  46 H46            4.1679    -4.6153     0.8302 H       
  47 H47            3.5490    -6.0265    -0.0605 H       
@<TRIPOS>BOND
   1    1    2 1
   2    1   10 1
   3    1   14 1
   4    2    3 2
   5    2   29 1
   6    3    4 1
   7    3   11 1
   8    4    5 1
   9    4   26 2
  10    5    6 ar
  11    5   10 ar
  12    6    7 ar
  13    6   30 1
  14    7    8 ar
  15    7   31 1
  16    8    9 ar
  17    8   32 1
  18    9   10 ar
  19    9   33 1
  20   11   12 2
  21   11   13 1
  22   13   27 1
  23   14   15 1
  24   14   34 1
  25   14   35 1
  26   15   16 ar
  27   15   20 ar
  28   16   17 ar
  29   16   36 1
  30   17   18 ar
  31   17   37 1
  32   18   19 ar
  33   18   21 1
  34   19   20 ar
  35   19   38 1
  36   20   39 1
  37   21   22 1
  38   21   25 1
  39   22   23 2
  40   23   24 1
  41   23   40 1
  42   24   25 2
  43   24   41 1
  44   25   42 1
  45   27   28 1
  46   27   43 1
  47   27   44 1
  48   28   45 1
  49   28   46 1
  50   28   47 1

#	End of record

