#	Name: ASD01884090
#	Creating user name:	WinNT
#	Creation time:	15. 06. 2019 19:47

#	Modifying user name:	WinNT
#	Modification time:	15. 06. 2019 19:47

#	Program:	/corina/corina34_cracker 3.40 0067  02.08.2006

@<TRIPOS>MOLECULE
ASD01884090
  56   58    0    0    0
SMALL
NO_CHARGES


@<TRIPOS>ATOM
   1 C1            -0.0168     1.3884     0.0097 C.2     
   2 C2             0.0021    -0.0041     0.0020 C.2     
   3 C3            -1.2095    -0.6965     0.0104 C.2     
   4 C4            -2.3831    -0.0157     0.0252 C.2     
   5 N5            -2.4093     1.3392     0.0327 N.am    
   6 C6            -1.2693     2.0558     0.0312 C.2     
   7 O7            -1.3129     3.2741     0.0380 O.2     
   8 C8            -3.6983     2.0352     0.0483 C.3     
   9 C9            -4.1338     2.2698     1.4962 C.3     
  10 C10           -5.4800     2.9967     1.5124 C.3     
  11 C11           -5.9753     3.1206     2.9547 C.3     
  12 C12           -5.3132     4.3926     0.9087 C.3     
  13 C13            1.2059     2.1337     0.0020 C.1     
  14 N14            2.1759     2.7249    -0.0041 N.1     
  15 C15            1.3105    -0.7515    -0.0155 C.3     
  16 N16            1.6901    -1.1066     1.3585 N.3     
  17 C17            2.8290    -2.0352     1.3670 C.3     
  18 C18            3.2431    -2.3172     2.8131 C.3     
  19 N19            2.1012    -2.8822     3.5456 N.3     
  20 C20            0.9623    -1.9536     3.5371 C.3     
  21 C21            0.5482    -1.6716     2.0910 C.3     
  22 C22            2.4588    -3.2167     4.8402 C.ar    
  23 N23            1.5489    -3.7419     5.6472 N.ar    
  24 C24            1.8578    -4.0728     6.8902 C.ar    
  25 C25            3.1504    -3.8639     7.3441 C.ar    
  26 C26            4.0775    -3.3125     6.4734 C.ar    
  27 N27            3.7046    -3.0091     5.2412 N.ar    
  28 C28            0.8165    -4.6693     7.8018 C.3     
  29 F29           -0.3648    -4.8833     7.0834 F       
  30 F30            1.2821    -5.8878     8.3073 F       
  31 F31            0.5654    -3.7904     8.8609 F       
  32 H32           -1.2130    -1.7765     0.0046 H       
  33 H33           -3.3137    -0.5638     0.0308 H       
  34 H34           -3.5999     2.9937    -0.4613 H       
  35 H35           -4.4456     1.4275    -0.4619 H       
  36 H36           -4.2323     1.3113     2.0058 H       
  37 H37           -3.3866     2.8775     2.0064 H       
  38 H38           -6.2051     2.4317     0.9266 H       
  39 H39           -5.2502     3.6856     3.5406 H       
  40 H40           -6.9344     3.6385     2.9663 H       
  41 H41           -6.0942     2.1261     3.3848 H       
  42 H42           -4.5881     4.9575     1.4946 H       
  43 H43           -4.9604     4.3043    -0.1188 H       
  44 H44           -6.2723     4.9105     0.9203 H       
  45 H45            1.2023    -1.6595    -0.6087 H       
  46 H46            2.0835    -0.1207    -0.4544 H       
  47 H47            2.5411    -2.9683     0.8826 H       
  48 H48            3.6659    -1.5892     0.8295 H       
  49 H49            4.0692    -3.0283     2.8228 H       
  50 H50            3.5569    -1.3883     3.2893 H       
  51 H51            0.1254    -2.3996     4.0746 H       
  52 H52            1.2502    -1.0205     4.0215 H       
  53 H53           -0.2779    -0.9605     2.0813 H       
  54 H54            0.2344    -2.6005     1.6148 H       
  55 H55            3.4293    -4.1246     8.3544 H       
  56 H56            5.0931    -3.1366     6.7960 H       
@<TRIPOS>BOND
   1    1    2 2
   2    1   13 1
   3    1    6 1
   4    2    3 1
   5    2   15 1
   6    3    4 2
   7    3   32 1
   8    4    5 1
   9    4   33 1
  10    5    6 am
  11    5    8 1
  12    6    7 2
  13    8    9 1
  14    8   34 1
  15    8   35 1
  16    9   10 1
  17    9   36 1
  18    9   37 1
  19   10   11 1
  20   10   12 1
  21   10   38 1
  22   11   39 1
  23   11   40 1
  24   11   41 1
  25   12   42 1
  26   12   43 1
  27   12   44 1
  28   13   14 3
  29   15   16 1
  30   15   45 1
  31   15   46 1
  32   16   17 1
  33   16   21 1
  34   17   18 1
  35   17   47 1
  36   17   48 1
  37   18   19 1
  38   18   49 1
  39   18   50 1
  40   19   20 1
  41   19   22 1
  42   20   21 1
  43   20   51 1
  44   20   52 1
  45   21   53 1
  46   21   54 1
  47   22   23 ar
  48   22   27 ar
  49   23   24 ar
  50   24   25 ar
  51   24   28 1
  52   25   26 ar
  53   25   55 1
  54   26   27 ar
  55   26   56 1
  56   28   29 1
  57   28   30 1
  58   28   31 1

#	End of record

