#	Name: ASD01911053
#	Creating user name:	WinNT
#	Creation time:	15. 06. 2019 19:57

#	Modifying user name:	WinNT
#	Modification time:	15. 06. 2019 19:57

#	Program:	/corina/corina34_cracker 3.40 0067  02.08.2006

@<TRIPOS>MOLECULE
ASD01911053
  51   54    0    0    0
SMALL
NO_CHARGES


@<TRIPOS>ATOM
   1 N1            -0.0480     2.0688    -0.2633 N.am    
   2 C2             0.1444     0.6121    -0.2353 C.3     
   3 C3            -0.5779     0.0459     0.9935 C.3     
   4 N4            -1.9467     0.5802     1.0212 N.am    
   5 C5            -2.1391     2.0369     0.9933 C.3     
   6 C6            -1.4166     2.6033    -0.2299 C.3     
   7 C7            -3.0066    -0.2509     1.0710 C.2     
   8 C8            -4.3693     0.2981     1.2387 C.ar    
   9 C9            -5.4475    -0.2907     0.5744 C.ar    
  10 C10           -6.7213     0.2204     0.7290 C.ar    
  11 C11           -6.9389     1.3156     1.5401 C.ar    
  12 C12           -5.8688     1.9155     2.2116 C.ar    
  13 C13           -4.5811     1.4001     2.0643 C.ar    
  14 C14           -6.0952     3.0524     3.0523 C.1     
  15 O15           -2.8422    -1.4516     0.9779 O.2     
  16 C16           -6.2809     3.9845     3.7415 C.1     
  17 C17           -6.5074     5.1214     4.5822 C.ar    
  18 N18           -5.4853     5.6866     5.2174 N.ar    
  19 C19           -5.6528     6.7336     5.9989 C.ar    
  20 C20           -6.9063     7.2862     6.1880 C.ar    
  21 C21           -8.0025     6.7279     5.5439 C.ar    
  22 C22           -7.8002     5.6324     4.7245 C.ar    
  23 C23            1.0119     2.8999    -0.3130 C.2     
  24 C24            0.8061     4.3409    -0.4919 C.2     
  25 O25            2.1397     2.4545    -0.2095 O.2     
  26 O26           -0.3855     4.9721    -0.5359 O.3     
  27 C27           -0.1869     6.2849    -0.7109 C.2     
  28 C28            1.1423     6.5179    -0.7823 C.2     
  29 C29            1.7870     5.2795    -0.6372 C.2     
  30 C30           -8.3322     1.8665     1.7022 C.3     
  31 F31           -9.2257     1.1067     0.9396 F       
  32 F32           -8.7029     1.8082     3.0500 F       
  33 F33           -8.3615     3.1959     1.2676 F       
  34 H34           -0.2726     0.1706    -1.1405 H       
  35 H35            1.2085     0.3848    -0.1711 H       
  36 H36           -0.6110    -1.0418     0.9295 H       
  37 H37           -0.0498     0.3456     1.8986 H       
  38 H38           -3.2032     2.2642     0.9291 H       
  39 H39           -1.7221     2.4784     1.8984 H       
  40 H40           -1.3843     3.6908    -0.1646 H       
  41 H41           -1.9427     2.3042    -1.1365 H       
  42 H42           -5.2848    -1.1478    -0.0622 H       
  43 H43           -7.5511    -0.2390     0.2124 H       
  44 H44           -3.7506     1.8590     2.5802 H       
  45 H45           -4.7992     7.1664     6.4994 H       
  46 H46           -7.0317     8.1445     6.8314 H       
  47 H47           -8.9908     7.1427     5.6767 H       
  48 H48           -8.6305     5.1737     4.2082 H       
  49 H49           -0.9615     7.0341    -0.7831 H       
  50 H50            1.6189     7.4770    -0.9211 H       
  51 H51            2.8524     5.1026    -0.6457 H       
@<TRIPOS>BOND
   1    1    2 1
   2    1   23 am
   3    1    6 1
   4    2    3 1
   5    2   34 1
   6    2   35 1
   7    3    4 1
   8    3   36 1
   9    3   37 1
  10    4    5 1
  11    4    7 am
  12    5    6 1
  13    5   38 1
  14    5   39 1
  15    6   40 1
  16    6   41 1
  17    7    8 1
  18    7   15 2
  19    8    9 ar
  20    8   13 ar
  21    9   10 ar
  22    9   42 1
  23   10   11 ar
  24   10   43 1
  25   11   12 ar
  26   11   30 1
  27   12   13 ar
  28   12   14 1
  29   13   44 1
  30   14   16 3
  31   16   17 1
  32   17   18 ar
  33   17   22 ar
  34   18   19 ar
  35   19   20 ar
  36   19   45 1
  37   20   21 ar
  38   20   46 1
  39   21   22 ar
  40   21   47 1
  41   22   48 1
  42   23   24 1
  43   23   25 2
  44   24   26 1
  45   24   29 2
  46   26   27 1
  47   27   28 2
  48   27   49 1
  49   28   29 1
  50   28   50 1
  51   29   51 1
  52   30   31 1
  53   30   32 1
  54   30   33 1

#	End of record

