#	Name: ASD09740602
#	Creating user name:	WinNT
#	Creation time:	15. 06. 2019 21:23

#	Modifying user name:	WinNT
#	Modification time:	15. 06. 2019 21:23

#	Program:	/corina/corina34_cracker 3.40 0067  02.08.2006

@<TRIPOS>MOLECULE
ASD09740602
  54   57    0    0    0
SMALL
NO_CHARGES


@<TRIPOS>ATOM
   1 N1            -0.0738     1.3323    -0.0341 N.2     
   2 C2            -0.1054     0.0235    -0.0737 C.2     
   3 C3             1.0980     1.8977     0.0467 C.2     
   4 S4             2.3427     0.6517     0.0792 S.3     
   5 C5             1.0969    -0.5907    -0.0253 C.2     
   6 C6             1.3433     3.3537     0.1016 C.ar    
   7 C7             0.2714     4.2424     0.0680 C.ar    
   8 C8             2.6512     3.8393     0.1930 C.ar    
   9 C9             2.8858     5.1965     0.2449 C.ar    
  10 C10            1.8259     6.0910     0.2074 C.ar    
  11 C11            0.5088     5.6149     0.1205 C.ar    
  12 O12            2.0626     7.4258     0.2597 O.3     
  13 C13            3.4143     7.8370     0.4738 C.3     
  14 C14            4.1529     7.8787    -0.8655 C.3     
  15 C15            3.4294     9.2293     1.1081 C.3     
  16 C16           -0.5871     6.5358     0.0811 C.1     
  17 N17           -1.4565     7.2664     0.0499 N.1     
  18 C18            1.3274    -2.0502    -0.0548 C.ar    
  19 C19            2.2542    -2.5944    -0.9487 C.ar    
  20 C20            2.4647    -3.9578    -0.9713 C.ar    
  21 C21            1.7578    -4.7813    -0.1089 C.ar    
  22 C22            0.8398    -4.2480     0.7768 C.ar    
  23 C23            0.6245    -2.8861     0.8133 C.ar    
  24 C24            3.1385    -1.9213    -1.9762 C.3     
  25 C25            4.2218    -2.9650    -2.3219 C.3     
  26 C26            3.5058    -4.2978    -2.0166 C.3     
  27 N27            2.8617    -4.8173    -3.2255 N.am    
  28 S28            3.3824    -6.2395    -3.8952 S.o2    
  29 O29            2.5618    -6.4075    -5.0431 O.2     
  30 O30            4.7886    -6.0750    -4.0176 O.2     
  31 C31            2.9950    -7.4967    -2.6462 C.3     
  32 H32           -1.0315    -0.5282    -0.1403 H       
  33 H33           -0.7400     3.8694     0.0012 H       
  34 H34            3.4807     3.1484     0.2234 H       
  35 H35            3.8985     5.5650     0.3155 H       
  36 H36            3.9083     7.1292     1.1393 H       
  37 H37            3.6588     8.5865    -1.5310 H       
  38 H38            5.1839     8.1924    -0.7022 H       
  39 H39            4.1421     6.8868    -1.3173 H       
  40 H40            2.9032     9.1996     2.0622 H       
  41 H41            4.4604     9.5430     1.2714 H       
  42 H42            2.9353     9.9371     0.4425 H       
  43 H43            1.9252    -5.8480    -0.1292 H       
  44 H44            0.2938    -4.8982     1.4442 H       
  45 H45           -0.0923    -2.4691     1.5052 H       
  46 H46            2.5603    -1.6677    -2.8648 H       
  47 H47            3.5961    -1.0269    -1.5536 H       
  48 H48            4.4961    -2.9048    -3.3751 H       
  49 H49            5.0973    -2.8406    -1.6846 H       
  50 H50            4.2143    -5.0261    -1.6219 H       
  51 H51            2.1301    -4.3283    -3.6336 H       
  52 H52            1.9141    -7.5655    -2.5231 H       
  53 H53            3.3861    -8.4617    -2.9684 H       
  54 H54            3.4518    -7.2182    -1.6965 H       
@<TRIPOS>BOND
   1    1    2 1
   2    1    3 2
   3    2    5 2
   4    2   32 1
   5    3    4 1
   6    3    6 1
   7    4    5 1
   8    5   18 1
   9    6    7 ar
  10    6    8 ar
  11    7   11 ar
  12    7   33 1
  13    8    9 ar
  14    8   34 1
  15    9   10 ar
  16    9   35 1
  17   10   11 ar
  18   10   12 1
  19   11   16 1
  20   12   13 1
  21   13   14 1
  22   13   15 1
  23   13   36 1
  24   14   37 1
  25   14   38 1
  26   14   39 1
  27   15   40 1
  28   15   41 1
  29   15   42 1
  30   16   17 3
  31   18   19 ar
  32   18   23 ar
  33   19   20 ar
  34   19   24 1
  35   20   21 ar
  36   20   26 1
  37   21   22 ar
  38   21   43 1
  39   22   23 ar
  40   22   44 1
  41   23   45 1
  42   24   25 1
  43   24   46 1
  44   24   47 1
  45   25   26 1
  46   25   48 1
  47   25   49 1
  48   26   27 1
  49   26   50 1
  50   27   28 am
  51   27   51 1
  52   28   29 2
  53   28   30 2
  54   28   31 1
  55   31   52 1
  56   31   53 1
  57   31   54 1

#	End of record

