#	Name: ASD03731274
#	Creating user name:	WinNT
#	Creation time:	15. 06. 2019 20:45

#	Modifying user name:	WinNT
#	Modification time:	15. 06. 2019 20:45

#	Program:	/corina/corina34_cracker 3.40 0067  02.08.2006

@<TRIPOS>MOLECULE
ASD03731274
  57   62    0    0    0
SMALL
NO_CHARGES


@<TRIPOS>ATOM
   1 N1            -0.0162     1.3436     0.0094 N.am    
   2 C2            -0.1428     0.0020     0.0365 C.2     
   3 O3             0.8440    -0.7036    -0.0459 O.2     
   4 N4            -1.3633    -0.5574     0.1550 N.am    
   5 C5            -1.5009    -2.0156     0.1845 C.3     
   6 C6            -2.9789    -2.3857     0.3244 C.3     
   7 O7             1.4459    -7.7574     2.1291 O.3     
   8 C8             1.7393    -9.1477     2.3615 C.3     
   9 O9             0.5478    -9.6474     2.9970 O.3     
  10 C10           -0.4663    -8.8477     2.5532 C.ar    
  11 C11            0.0865    -7.6853     2.0206 C.ar    
  12 C12           -1.8387    -9.0209     2.5598 C.ar    
  13 C13           -2.6758    -8.0390     2.0385 C.ar    
  14 C14           -2.1123    -6.8785     1.5168 C.ar    
  15 C15           -0.7440    -6.7055     1.5031 C.ar    
  16 O16           -4.0355    -8.0184     1.9333 O.3     
  17 C17           -3.2569    -6.0118     1.0643 C.3     
  18 C18           -4.4760    -6.6615     1.7329 C.3     
  19 N19           -3.1165    -3.8439     0.3539 N.am    
  20 C20           -3.0855    -4.5800     1.4827 C.2     
  21 C21           -3.3905    -5.9765    -0.4293 C.ar    
  22 C22           -3.5703    -6.9449    -1.3916 C.ar    
  23 C23           -3.6601    -6.5883    -2.7253 C.ar    
  24 C24           -3.5682    -5.2572    -3.0896 C.ar    
  25 C25           -3.3871    -4.2836    -2.1295 C.ar    
  26 C26           -3.2960    -4.6334    -0.7845 C.ar    
  27 O27           -2.9467    -4.1667     2.6146 O.2     
  28 C28            1.2566     1.9266     0.0081 C.ar    
  29 C29            1.4779     3.1121    -0.6806 C.ar    
  30 C30            2.7343     3.6852    -0.6804 C.ar    
  31 C31            3.7726     3.0789     0.0051 C.ar    
  32 C32            3.5547     1.8978     0.6921 C.ar    
  33 C33            2.2983     1.3238     0.7001 C.ar    
  34 C34            0.3480     3.7723    -1.4280 C.3     
  35 Cl35           5.3511     3.8013     0.0025 Cl      
  36 H36           -0.8069     1.9050    -0.0132 H       
  37 H37           -2.1505     0.0055     0.2208 H       
  38 H38           -1.1070    -2.4365    -0.7406 H       
  39 H39           -0.9443    -2.4161     1.0318 H       
  40 H40           -3.3728    -1.9648     1.2495 H       
  41 H41           -3.5355    -1.9852    -0.5229 H       
  42 H42            1.9158    -9.6647     1.4183 H       
  43 H43            2.5989    -9.2523     3.0234 H       
  44 H44           -2.2634    -9.9241     2.9724 H       
  45 H45           -0.3192    -5.8035     1.0880 H       
  46 H46           -5.3427    -6.6293     1.0726 H       
  47 H47           -4.6964    -6.1812     2.6863 H       
  48 H48           -3.6416    -7.9837    -1.1049 H       
  49 H49           -3.8020    -7.3474    -3.4803 H       
  50 H50           -3.6382    -4.9788    -4.1307 H       
  51 H51           -3.3157    -3.2464    -2.4218 H       
  52 H52            2.9069     4.6071    -1.2158 H       
  53 H53            4.3667     1.4265     1.2259 H       
  54 H54            2.1276     0.4044     1.2405 H       
  55 H55           -0.1690     4.4666    -0.7657 H       
  56 H56            0.7474     4.3160    -2.2842 H       
  57 H57           -0.3515     3.0117    -1.7748 H       
@<TRIPOS>BOND
   1    1    2 am
   2    1   28 1
   3    1   36 1
   4    2    3 2
   5    2    4 am
   6    4    5 1
   7    4   37 1
   8    5    6 1
   9    5   38 1
  10    5   39 1
  11    6   19 1
  12    6   40 1
  13    6   41 1
  14    7    8 1
  15    7   11 1
  16    8    9 1
  17    8   42 1
  18    8   43 1
  19    9   10 1
  20   10   11 ar
  21   10   12 ar
  22   11   15 ar
  23   12   13 ar
  24   12   44 1
  25   13   14 ar
  26   13   16 1
  27   14   15 ar
  28   14   17 1
  29   15   45 1
  30   16   18 1
  31   17   18 1
  32   17   20 1
  33   17   21 1
  34   18   46 1
  35   18   47 1
  36   19   20 am
  37   19   26 1
  38   20   27 2
  39   21   22 ar
  40   21   26 ar
  41   22   23 ar
  42   22   48 1
  43   23   24 ar
  44   23   49 1
  45   24   25 ar
  46   24   50 1
  47   25   26 ar
  48   25   51 1
  49   28   29 ar
  50   28   33 ar
  51   29   30 ar
  52   29   34 1
  53   30   31 ar
  54   30   52 1
  55   31   32 ar
  56   31   35 1
  57   32   33 ar
  58   32   53 1
  59   33   54 1
  60   34   55 1
  61   34   56 1
  62   34   57 1

#	End of record

