#	Name: ASD00060047
#	Creating user name:	WinNT
#	Creation time:	15. 06. 2019 18:29

#	Modifying user name:	WinNT
#	Modification time:	15. 06. 2019 18:29

#	Program:	/corina/corina34_cracker 3.40 0067  02.08.2006

@<TRIPOS>MOLECULE
ASD00060047
  41   42    0    0    0
SMALL
NO_CHARGES


@<TRIPOS>ATOM
   1 C1            -0.1406     1.0867    -0.7035 C.ar    
   2 C2            -0.0485    -0.2925    -0.7211 C.ar    
   3 C3             1.1836    -0.9047    -0.5870 C.ar    
   4 C4             2.3237    -0.1377    -0.4358 C.ar    
   5 C5             2.2317     1.2415    -0.4192 C.ar    
   6 C6             0.9995     1.8536    -0.5519 C.ar    
   7 C7             3.4745     2.0776    -0.2534 C.3     
   8 C8             3.6450     2.9853    -1.4732 C.3     
   9 N9             4.9170     3.7126    -1.3684 N.3     
  10 C10            5.1770     4.4962    -2.5834 C.3     
  11 C11            6.6131     4.3128    -3.0017 C.ar    
  12 P12            4.8624     6.2602    -2.2478 P.3     
  13 O13            3.4267     6.4568    -1.9474 O.2     
  14 O14            5.7442     6.7320    -0.9861 O.3     
  15 O15            5.2647     7.1324    -3.5399 O.3     
  16 C16            7.5985     4.1642    -2.0437 C.ar    
  17 C17            6.9444     4.2874    -4.3436 C.ar    
  18 C18            8.2617     4.1192    -4.7273 C.ar    
  19 C19            9.2479     3.9768    -3.7691 C.ar    
  20 C20            8.9158     3.9960    -2.4273 C.ar    
  21 C21            3.3476     2.9356     1.0070 C.3     
  22 H22           -1.1027     1.5650    -0.8128 H       
  23 H23           -0.9392    -0.8917    -0.8392 H       
  24 H24            1.2555    -1.9822    -0.6000 H       
  25 H25            3.2863    -0.6160    -0.3303 H       
  26 H26            0.9275     2.9312    -0.5385 H       
  27 H27            4.3424     1.4244    -0.1624 H       
  28 H28            3.6463     2.3797    -2.3794 H       
  29 H29            2.8212     3.6980    -1.5137 H       
  30 H30            4.9306     4.3010    -0.5488 H       
  31 H31            4.5193     4.1556    -3.3831 H       
  32 H32            5.6269     7.6624    -0.7501 H       
  33 H33            6.1939     7.0518    -3.7951 H       
  34 H34            7.3392     4.1800    -0.9954 H       
  35 H35            6.1739     4.3986    -5.0922 H       
  36 H36            8.5204     4.0986    -5.7756 H       
  37 H37           10.2770     3.8450    -4.0689 H       
  38 H38            9.6857     3.8803    -1.6788 H       
  39 H39            2.4797     3.5887     0.9161 H       
  40 H40            3.2261     2.2889     1.8760 H       
  41 H41            4.2464     3.5403     1.1269 H       
@<TRIPOS>BOND
   1    1    2 ar
   2    1    6 ar
   3    1   22 1
   4    2    3 ar
   5    2   23 1
   6    3    4 ar
   7    3   24 1
   8    4    5 ar
   9    4   25 1
  10    5    6 ar
  11    5    7 1
  12    6   26 1
  13    7    8 1
  14    7   21 1
  15    7   27 1
  16    8    9 1
  17    8   28 1
  18    8   29 1
  19    9   10 1
  20    9   30 1
  21   10   11 1
  22   10   12 1
  23   10   31 1
  24   11   17 ar
  25   11   16 ar
  26   12   13 2
  27   12   14 1
  28   12   15 1
  29   14   32 1
  30   15   33 1
  31   16   20 ar
  32   16   34 1
  33   17   18 ar
  34   17   35 1
  35   18   19 ar
  36   18   36 1
  37   19   20 ar
  38   19   37 1
  39   20   38 1
  40   21   39 1
  41   21   40 1
  42   21   41 1

#	End of record

