#	Name: ASD00170269
#	Creating user name:	WinNT
#	Creation time:	15. 06. 2019 18:31

#	Modifying user name:	WinNT
#	Modification time:	15. 06. 2019 18:31

#	Program:	/corina/corina34_cracker 3.40 0067  02.08.2006

@<TRIPOS>MOLECULE
ASD00170269
  25   27    0    0    0
SMALL
NO_CHARGES


@<TRIPOS>ATOM
   1 C1            -0.0299     1.3609    -0.1163 C.2     
   2 C2             0.0026    -0.0027    -0.0058 C.2     
   3 C3            -1.3161    -0.6100     0.1432 C.ar    
   4 C4            -2.3396     0.3394     0.1412 C.ar    
   5 S5            -1.6761     1.9566    -0.0354 S.3     
   6 C6            -1.6783    -1.9666     0.2827 C.ar    
   7 C7            -2.9946    -2.2976     0.4086 C.ar    
   8 N8            -3.9384    -1.3722     0.4022 N.ar    
   9 C9            -3.6591    -0.0928     0.2757 C.ar    
  10 N10            1.0811     2.1577    -0.2650 N.pl3   
  11 C11            1.2420    -0.7785    -0.0350 C.2     
  12 C12            1.9434    -1.0891     1.2169 C.2     
  13 O13            1.6930    -1.1674    -1.0993 O.2     
  14 C14            3.0480    -1.8846     1.3299 C.2     
  15 C15            3.5017    -2.0049     2.6229 C.2     
  16 C16            2.7942    -1.3320     3.5372 C.2     
  17 S17            1.5004    -0.4906     2.8097 S.3     
  18 H18           -0.9198    -2.7355     0.2892 H       
  19 H19           -3.2717    -3.3359     0.5153 H       
  20 H20           -4.4606     0.6311     0.2753 H       
  21 H21            1.9677     1.7671    -0.2185 H       
  22 H22            0.9780     3.1102    -0.4163 H       
  23 H23            3.5182    -2.3709     0.4880 H       
  24 H24            4.3657    -2.5993     2.8810 H       
  25 H25            3.0149    -1.3197     4.5944 H       
@<TRIPOS>BOND
   1    1    2 2
   2    1   10 1
   3    1    5 1
   4    2    3 1
   5    2   11 1
   6    3    4 ar
   7    3    6 ar
   8    4    5 1
   9    4    9 ar
  10    6    7 ar
  11    6   18 1
  12    7    8 ar
  13    7   19 1
  14    8    9 ar
  15    9   20 1
  16   10   21 1
  17   10   22 1
  18   11   12 1
  19   11   13 2
  20   12   14 2
  21   12   17 1
  22   14   15 1
  23   14   23 1
  24   15   16 2
  25   15   24 1
  26   16   17 1
  27   16   25 1

#	End of record

