#	Name: ASD02198605
#	Creating user name:	WinNT
#	Creation time:	15. 06. 2019 20:19

#	Modifying user name:	WinNT
#	Modification time:	15. 06. 2019 20:19

#	Program:	/corina/corina34_cracker 3.40 0067  02.08.2006

@<TRIPOS>MOLECULE
ASD02198605
  41   45    0    0    0
SMALL
NO_CHARGES


@<TRIPOS>ATOM
   1 C1            -0.0439     1.5054    -0.1135 C.2     
   2 C2            -0.0746     0.1658     0.0994 C.2     
   3 N3             1.0691    -0.5366     0.2621 N.pl3   
   4 N4             2.2341    -0.0028     0.2280 N.2     
   5 C5             2.4066     1.2864     0.0290 C.2     
   6 C6             1.2215     2.1384    -0.1595 C.2     
   7 C7             0.9766    -1.9157     0.4791 C.ar    
   8 C8             1.5765    -2.4873     1.5972 C.ar    
   9 C9             1.4804    -3.8596     1.8075 C.ar    
  10 C10            0.7885    -4.6498     0.9032 C.ar    
  11 C11            0.1938    -4.0782    -0.2071 C.ar    
  12 C12            0.2806    -2.7163    -0.4184 C.ar    
  13 C13            3.7640     1.8676    -0.0036 C.2     
  14 N14            4.3068     2.6065    -1.0171 N.pl3   
  15 N15            5.6090     2.9570    -0.6394 N.2     
  16 C16            5.8522     2.4578     0.5462 C.2     
  17 C17            4.7194     1.7719     0.9844 C.2     
  18 C18            3.6740     2.9515    -2.2181 C.ar    
  19 C19            2.9062     2.0127    -2.8947 C.ar    
  20 O20            1.3254     3.3413    -0.3480 O.2     
  21 C21            3.8085     4.2346    -2.7319 C.ar    
  22 C22            3.1830     4.5717    -3.9162 C.ar    
  23 C23            2.4234     3.6332    -4.5902 C.ar    
  24 C24            2.2832     2.3561    -4.0785 C.ar    
  25 O25            2.2997    -1.9385     2.6165 O.3     
  26 C26            2.2973    -2.9261     3.6644 C.3     
  27 O27            2.1436    -4.1720     2.9592 O.3     
  28 F28            3.5085    -2.9033     4.3641 F       
  29 F29            1.2216    -2.7175     4.5341 F       
  30 H30           -0.9549     2.0697    -0.2479 H       
  31 H31           -1.0248    -0.3459     0.1398 H       
  32 H32            0.7138    -5.7149     1.0658 H       
  33 H33           -0.3441    -4.6984    -0.9087 H       
  34 H34           -0.1853    -2.2743    -1.2867 H       
  35 H35            6.7758     2.5633     1.0960 H       
  36 H36            4.6131     1.2529     1.9255 H       
  37 H37            2.7967     1.0151    -2.4957 H       
  38 H38            4.4013     4.9682    -2.2057 H       
  39 H39            3.2869     5.5696    -4.3160 H       
  40 H40            1.9352     3.8992    -5.5161 H       
  41 H41            1.6894     1.6253    -4.6073 H       
@<TRIPOS>BOND
   1    1    2 2
   2    1    6 1
   3    1   30 1
   4    2    3 1
   5    2   31 1
   6    3    4 1
   7    3    7 1
   8    4    5 2
   9    5    6 1
  10    5   13 1
  11    6   20 2
  12    7    8 ar
  13    7   12 ar
  14    8    9 ar
  15    8   25 1
  16    9   10 ar
  17    9   27 1
  18   10   11 ar
  19   10   32 1
  20   11   12 ar
  21   11   33 1
  22   12   34 1
  23   13   14 1
  24   13   17 2
  25   14   15 1
  26   14   18 1
  27   15   16 2
  28   16   17 1
  29   16   35 1
  30   17   36 1
  31   18   21 ar
  32   18   19 ar
  33   19   24 ar
  34   19   37 1
  35   21   22 ar
  36   21   38 1
  37   22   23 ar
  38   22   39 1
  39   23   24 ar
  40   23   40 1
  41   24   41 1
  42   25   26 1
  43   26   27 1
  44   26   28 1
  45   26   29 1

#	End of record

