#	Name: ASD05143319
#	Creating user name:	WinNT
#	Creation time:	15. 06. 2019 20:57

#	Modifying user name:	WinNT
#	Modification time:	15. 06. 2019 20:57

#	Program:	/corina/corina34_cracker 3.40 0067  02.08.2006

@<TRIPOS>MOLECULE
ASD05143319
  49   51    0    0    0
SMALL
NO_CHARGES


@<TRIPOS>ATOM
   1 C1             0.3925     1.2314     0.2710 C.2     
   2 N2             0.3879    -0.0342    -0.0979 N.2     
   3 S3            -1.2490    -0.4793    -0.1953 S.3     
   4 C4            -1.8458     1.0686     0.2678 C.2     
   5 N5            -0.7773     1.8082     0.4676 N.2     
   6 N6            -3.1676     1.4508     0.4050 N.pl3   
   7 C7            -3.4804     2.7236     0.8924 C.ar    
   8 C8            -4.7997     3.0545     1.1809 C.ar    
   9 C9            -5.1046     4.3130     1.6629 C.ar    
  10 C10           -4.0993     5.2427     1.8577 C.ar    
  11 C11           -2.7866     4.9164     1.5717 C.ar    
  12 C12           -2.4736     3.6580     1.0949 C.ar    
  13 C13            1.4785    -0.8272    -0.3511 C.ar    
  14 C14            2.4077    -0.4522    -1.3211 C.ar    
  15 C15            1.6673    -2.0146     0.3672 C.ar    
  16 C16            2.7705    -2.8081     0.1047 C.ar    
  17 C17            3.6827    -2.4292    -0.8637 C.ar    
  18 C18            3.5030    -1.2542    -1.5715 C.ar    
  19 C19            1.6597     1.9737     0.4629 C.ar    
  20 C20            1.7185     3.3398     0.1864 C.ar    
  21 C21            2.7958     1.3096     0.9260 C.ar    
  22 C22            3.9736     2.0038     1.1039 C.ar    
  23 C23            4.0299     3.3624     0.8227 C.ar    
  24 C24            2.8997     4.0277     0.3666 C.ar    
  25 O25            5.1921     4.0435     0.9996 O.3     
  26 C26            5.1798     5.4388     0.6912 C.3     
  27 O27            0.7708    -2.3860     1.3188 O.3     
  28 C28            1.0287    -3.6094     2.0108 C.3     
  29 Cl29          -6.0620     1.8883     0.9355 Cl      
  30 H30           -3.8779     0.8361     0.1631 H       
  31 H31           -6.1290     4.5711     1.8873 H       
  32 H32           -4.3403     6.2260     2.2338 H       
  33 H33           -2.0042     5.6450     1.7247 H       
  34 H34           -1.4478     3.4043     0.8718 H       
  35 H35            2.2704     0.4642    -1.8759 H       
  36 H36            2.9195    -3.7243     0.6569 H       
  37 H37            4.5423    -3.0514    -1.0649 H       
  38 H38            4.2198    -0.9656    -2.3259 H       
  39 H39            0.8399     3.8579    -0.1686 H       
  40 H40            2.7526     0.2529     1.1452 H       
  41 H41            4.8534     1.4903     1.4627 H       
  42 H42            2.9471     5.0844     0.1486 H       
  43 H43            6.1678     5.8605     0.8759 H       
  44 H44            4.9161     5.5768    -0.3574 H       
  45 H45            4.4460     5.9433     1.3198 H       
  46 H46            1.9884    -3.5418     2.5230 H       
  47 H47            0.2390    -3.7874     2.7407 H       
  48 H48            1.0553    -4.4323     1.2964 H       
  49 Br49          11.1678    11.2260     7.7407 Br      
@<TRIPOS>BOND
   1    1    2 2
   2    1   19 1
   3    1    5 1
   4    2    3 1
   5    2   13 1
   6    3    4 1
   7    4    5 2
   8    4    6 1
   9    6    7 1
  10    6   30 1
  11    7    8 ar
  12    7   12 ar
  13    8    9 ar
  14    8   29 1
  15    9   10 ar
  16    9   31 1
  17   10   11 ar
  18   10   32 1
  19   11   12 ar
  20   11   33 1
  21   12   34 1
  22   13   14 ar
  23   13   15 ar
  24   14   18 ar
  25   14   35 1
  26   15   16 ar
  27   15   27 1
  28   16   17 ar
  29   16   36 1
  30   17   18 ar
  31   17   37 1
  32   18   38 1
  33   19   20 ar
  34   19   21 ar
  35   20   24 ar
  36   20   39 1
  37   21   22 ar
  38   21   40 1
  39   22   23 ar
  40   22   41 1
  41   23   24 ar
  42   23   25 1
  43   24   42 1
  44   25   26 1
  45   26   43 1
  46   26   44 1
  47   26   45 1
  48   27   28 1
  49   28   46 1
  50   28   47 1
  51   28   48 1

#	End of record

