#	Name: ASD01940058
#	Creating user name:	WinNT
#	Creation time:	15. 06. 2019 20:11

#	Modifying user name:	WinNT
#	Modification time:	15. 06. 2019 20:11

#	Program:	/corina/corina34_cracker 3.40 0067  02.08.2006

@<TRIPOS>MOLECULE
ASD01940058
  40   41    0    0    0
SMALL
NO_CHARGES


@<TRIPOS>ATOM
   1 C1             0.5123     2.0226    -1.3595 C.ar    
   2 C2             1.1328     1.4572    -2.4650 C.ar    
   3 C3             0.4810     1.4298    -3.6831 C.ar    
   4 C4            -0.7887     1.9647    -3.8028 C.ar    
   5 C5            -1.4114     2.5294    -2.7036 C.ar    
   6 C6            -0.7673     2.5555    -1.4807 C.ar    
   7 N7             1.1696     2.0513    -0.1251 N.pl3   
   8 C8             2.3901     1.4023     0.0281 C.ar    
   9 C9             3.5833     2.0512    -0.3262 C.ar    
  10 C10            3.5491     3.4230    -0.8621 C.2     
  11 N11            4.6991     4.0558    -1.1681 N.am    
  12 O12            2.4832     3.9844    -1.0285 O.2     
  13 O13            4.6662     5.3744    -1.6832 O.3     
  14 C14            4.8048     1.3889    -0.1673 C.ar    
  15 C15            4.8321     0.1069     0.3345 C.ar    
  16 C16            3.6503    -0.5348     0.6850 C.ar    
  17 C17            2.4348     0.1098     0.5383 C.ar    
  18 Br18           6.4858    -0.7852     0.5471 Br      
  19 F19            3.6888    -1.7927     1.1763 F       
  20 F20            1.2903    -0.5207     0.8813 F       
  21 I21           -1.7713     1.9206    -5.6525 I       
  22 F22           -1.3751     3.1067    -0.4074 F       
  23 C23            5.9564     5.9215    -1.9627 C.3     
  24 C24            5.8003     7.3413    -2.5113 C.3     
  25 C25            7.1704     7.8808    -2.9269 C.3     
  26 O26            7.0111     9.1590    -3.5458 O.3     
  27 O27            5.2432     8.1839    -1.5005 O.3     
  28 H28            2.1244     1.0394    -2.3733 H       
  29 H29            0.9640     0.9902    -4.5433 H       
  30 H30           -2.4029     2.9466    -2.8003 H       
  31 H31            0.7741     2.5238     0.6241 H       
  32 H32            5.5493     3.6080    -1.0354 H       
  33 H33            5.7262     1.8827    -0.4384 H       
  34 H34            6.5457     5.9489    -1.0461 H       
  35 H35            6.4624     5.3001    -2.7015 H       
  36 H36            5.1381     7.3255    -3.3769 H       
  37 H37            7.8043     7.9802    -2.0458 H       
  38 H38            7.6339     7.1909    -3.6321 H       
  39 H39            7.8411     9.5619    -3.8355 H       
  40 H40            5.7808     8.2452    -0.6991 H       
@<TRIPOS>BOND
   1    1    2 ar
   2    1    7 1
   3    1    6 ar
   4    2    3 ar
   5    2   28 1
   6    3    4 ar
   7    3   29 1
   8    4    5 ar
   9    4   21 1
  10    5    6 ar
  11    5   30 1
  12    6   22 1
  13    7    8 1
  14    7   31 1
  15    8    9 ar
  16    8   17 ar
  17    9   10 1
  18    9   14 ar
  19   10   11 am
  20   10   12 2
  21   11   13 1
  22   11   32 1
  23   13   23 1
  24   14   15 ar
  25   14   33 1
  26   15   16 ar
  27   15   18 1
  28   16   17 ar
  29   16   19 1
  30   17   20 1
  31   23   24 1
  32   23   34 1
  33   23   35 1
  34   24   25 1
  35   24   27 1
  36   24   36 1
  37   25   26 1
  38   25   37 1
  39   25   38 1
  40   26   39 1
  41   27   40 1

#	End of record

