#	Name: ASD07931640
#	Creating user name:	WinNT
#	Creation time:	15. 06. 2019 21:13

#	Modifying user name:	WinNT
#	Modification time:	15. 06. 2019 21:13

#	Program:	/corina/corina34_cracker 3.40 0067  02.08.2006

@<TRIPOS>MOLECULE
ASD07931640
  30   30    0    0    0
SMALL
NO_CHARGES


@<TRIPOS>ATOM
   1 C1            -0.0184     1.5028     0.0103 C.2     
   2 C2             0.0021    -0.0041     0.0020 C.3     
   3 C3             1.4295    -0.4870    -0.0142 C.2     
   4 O4             1.0197     2.1211     0.0037 O.2     
   5 O5            -1.1898     2.1580     0.0194 O.3     
   6 O6             2.3408     0.3138    -0.0186 O.2     
   7 C7             1.7169    -1.9246    -0.0247 C.ar    
   8 C8             0.6671    -2.8552    -0.0196 C.ar    
   9 C9             0.9481    -4.2067    -0.0295 C.ar    
  10 C10            2.2608    -4.6474    -0.0439 C.ar    
  11 C11            3.3043    -3.7422    -0.0486 C.ar    
  12 C12            3.0458    -2.3806    -0.0456 C.ar    
  13 O13            4.0706    -1.4926    -0.0567 O.3     
  14 C14            5.3945    -2.0300    -0.0780 C.3     
  15 F15           -0.6152    -2.4299    -0.0047 F       
  16 C16           -1.1335     3.6089     0.0270 C.3     
  17 C17           -2.5551     4.1744     0.0369 C.3     
  18 H18           -0.4983    -0.3791     0.8948 H       
  19 H19           -0.5153    -0.3696    -0.8850 H       
  20 H20            0.1404    -4.9237    -0.0257 H       
  21 H21            2.4703    -5.7068    -0.0512 H       
  22 H22            4.3245    -4.0966    -0.0595 H       
  23 H23            5.5507    -2.6463     0.8074 H       
  24 H24            5.5251    -2.6391    -0.9724 H       
  25 H25            6.1176    -1.2144    -0.0850 H       
  26 H26           -0.6017     3.9472     0.9164 H       
  27 H27           -0.6102     3.9569    -0.8636 H       
  28 H28           -3.0784     3.8265     0.9275 H       
  29 H29           -2.5128     5.2636     0.0426 H       
  30 H30           -3.0869     3.8361    -0.8525 H       
@<TRIPOS>BOND
   1    1    2 1
   2    1    4 2
   3    1    5 1
   4    2    3 1
   5    2   18 1
   6    2   19 1
   7    3    6 2
   8    3    7 1
   9    5   16 1
  10    7    8 ar
  11    7   12 ar
  12    8    9 ar
  13    8   15 1
  14    9   10 ar
  15    9   20 1
  16   10   11 ar
  17   10   21 1
  18   11   12 ar
  19   11   22 1
  20   12   13 1
  21   13   14 1
  22   14   23 1
  23   14   24 1
  24   14   25 1
  25   16   17 1
  26   16   26 1
  27   16   27 1
  28   17   28 1
  29   17   29 1
  30   17   30 1

#	End of record

