#	Name: ASD01917396
#	Creating user name:	WinNT
#	Creation time:	15. 06. 2019 20:09

#	Modifying user name:	WinNT
#	Modification time:	15. 06. 2019 20:09

#	Program:	/corina/corina34_cracker 3.40 0067  02.08.2006

@<TRIPOS>MOLECULE
ASD01917396
  49   52    0    0    0
SMALL
NO_CHARGES


@<TRIPOS>ATOM
   1 C1            -0.0180     1.4773     0.0102 C.2     
   2 C2             0.0021    -0.0041     0.0020 C.ar    
   3 C3             1.2111    -0.7062    -0.0133 C.ar    
   4 C4             1.1835    -2.0873    -0.0205 C.ar    
   5 N5             0.0392    -2.7415    -0.0131 N.ar    
   6 C6            -1.1224    -2.1187     0.0013 C.ar    
   7 C7            -1.1874    -0.7388     0.0153 C.ar    
   8 O8             1.0259     2.0991     0.0035 O.2     
   9 N9            -1.1942     2.1352     0.0193 N.am    
  10 C10           -1.2141     3.6001     0.0274 C.3     
  11 C11           -0.4908     4.1931     1.2492 C.3     
  12 C12           -0.3553     5.7055     1.0628 C.3     
  13 C13           -1.7287     6.3381     0.8299 C.3     
  14 C14           -2.3987     5.6528    -0.3739 C.3     
  15 C15           -1.3373     5.5406    -1.4925 C.3     
  16 C16           -0.5656     4.2112    -1.2361 C.3     
  17 C17           -2.6537     4.1787     0.0378 C.3     
  18 C18           -3.5420     7.6352    -1.2107 C.2     
  19 C19           -4.7648     8.3378    -1.6546 C.ar    
  20 C20           -4.6972     9.6697    -2.0662 C.ar    
  21 C21           -5.8438    10.3203    -2.4797 C.ar    
  22 C22           -7.0581     9.6521    -2.4859 C.ar    
  23 C23           -7.1295     8.3323    -2.0788 C.ar    
  24 C24           -5.9902     7.6702    -1.6691 C.ar    
  25 O25           -2.4751     8.2175    -1.2037 O.2     
  26 N26           -3.6104     6.3490    -0.8137 N.am    
  27 F27           -5.7814    11.6096    -2.8783 F       
  28 H28            2.1524    -0.1767    -0.0198 H       
  29 H29            2.1122    -2.6386    -0.0327 H       
  30 H30           -2.0358    -2.6951     0.0069 H       
  31 H31           -2.1426    -0.2352     0.0321 H       
  32 H32           -2.0276     1.6388     0.0206 H       
  33 H33           -1.0683     3.9870     2.1504 H       
  34 H34            0.4995     3.7466     1.3390 H       
  35 H35            0.0952     6.1400     1.9552 H       
  36 H36            0.2850     5.9072     0.2041 H       
  37 H37           -2.3475     6.2034     1.7171 H       
  38 H38           -1.6102     7.4019     0.6244 H       
  39 H39           -1.8228     5.5084    -2.4678 H       
  40 H40           -0.6503     6.3853    -1.4431 H       
  41 H41            0.4889     4.4182    -1.0532 H       
  42 H42           -0.6733     3.5294    -2.0797 H       
  43 H43           -3.2873     3.6635    -0.6842 H       
  44 H44           -3.0860     4.1331     1.0374 H       
  45 H45           -3.7511    10.1906    -2.0611 H       
  46 H46           -7.9521    10.1642    -2.8095 H       
  47 H47           -8.0787     7.8171    -2.0859 H       
  48 H48           -6.0476     6.6382    -1.3559 H       
  49 H49           -4.4618     5.8843    -0.8193 H       
@<TRIPOS>BOND
   1    1    2 1
   2    1    8 2
   3    1    9 am
   4    2    3 ar
   5    2    7 ar
   6    3    4 ar
   7    3   28 1
   8    4    5 ar
   9    4   29 1
  10    5    6 ar
  11    6    7 ar
  12    6   30 1
  13    7   31 1
  14    9   10 1
  15    9   32 1
  16   10   11 1
  17   10   16 1
  18   10   17 1
  19   11   12 1
  20   11   33 1
  21   11   34 1
  22   12   13 1
  23   12   35 1
  24   12   36 1
  25   13   14 1
  26   13   37 1
  27   13   38 1
  28   14   15 1
  29   14   17 1
  30   14   26 1
  31   15   16 1
  32   15   39 1
  33   15   40 1
  34   16   41 1
  35   16   42 1
  36   17   43 1
  37   17   44 1
  38   18   19 1
  39   18   25 2
  40   18   26 am
  41   19   20 ar
  42   19   24 ar
  43   20   21 ar
  44   20   45 1
  45   21   22 ar
  46   21   27 1
  47   22   23 ar
  48   22   46 1
  49   23   24 ar
  50   23   47 1
  51   24   48 1
  52   26   49 1

#	End of record

