#	Name: ASD05720049
#	Creating user name:	WinNT
#	Creation time:	15. 06. 2019 21:01

#	Modifying user name:	WinNT
#	Modification time:	15. 06. 2019 21:01

#	Program:	/corina/corina34_cracker 3.40 0067  02.08.2006

@<TRIPOS>MOLECULE
ASD05720049
  70   74    0    0    0
SMALL
NO_CHARGES


@<TRIPOS>ATOM
   1 O1             1.3589     1.6287    -0.4339 O.3     
   2 C2             1.8191     0.3818    -0.5848 C.2     
   3 N3             1.1345    -0.5365     0.1107 N.am    
   4 C4             0.0533     0.1340     0.8490 C.3     
   5 C5             0.2154     1.6185     0.4690 C.3     
   6 O6             2.7704     0.1069    -1.2887 O.2     
   7 C7             2.9084    -3.6402    -0.0447 C.2     
   8 N8             2.6338    -2.3323    -0.0604 N.2     
   9 C9             1.4020    -1.8991     0.1309 C.2     
  10 C10            0.3575    -2.8187     0.3561 C.2     
  11 C11            0.6319    -4.1429     0.3732 C.2     
  12 N12            1.9178    -4.5613     0.1714 N.pl3   
  13 N13            2.4976    -5.8343     0.1327 N.2     
  14 C14            3.7827    -5.7178    -0.0954 C.2     
  15 C15            4.0981    -4.3594    -0.2215 C.2     
  16 C16            5.4376    -3.7896    -0.4894 C.ar    
  17 C17            6.5112    -4.1075     0.3444 C.ar    
  18 C18            7.7571    -3.5770     0.0946 C.ar    
  19 C19            7.9466    -2.7222    -0.9912 C.ar    
  20 C20            6.8743    -2.4042    -1.8247 C.ar    
  21 C21            5.6292    -2.9385    -1.5794 C.ar    
  22 N22           10.9605    -1.0457    -2.1245 N.pl3   
  23 N23            9.5921    -1.3368    -2.2471 N.2     
  24 C24            9.2886    -2.1508    -1.2594 C.2     
  25 N25           10.3932    -2.3776    -0.5352 N.2     
  26 C26           11.3998    -1.7194    -1.0463 C.2     
  27 C27           11.7549    -0.1829    -3.0023 C.3     
  28 O28           13.1061    -0.1466    -2.5387 O.3     
  29 C29           13.9702     0.6720    -3.3295 C.3     
  30 C30           15.3833     0.6363    -2.7441 C.3     
  31 Si31          16.5097     1.7035    -3.7750 Si      
  32 C32           15.8798     3.4568    -3.7706 C.3     
  33 C33           18.2304     1.6601    -3.0622 C.3     
  34 C34           16.5454     1.0609    -5.5233 C.3     
  35 C35            0.2325    -0.0577     2.3563 C.3     
  36 C36            0.0645    -1.5377     2.7057 C.3     
  37 C37            0.0903    -1.7090     4.2259 C.3     
  38 H38           -0.9188    -0.2396     0.5274 H       
  39 H39            0.4225     2.2192     1.3547 H       
  40 H40           -0.6770     1.9822    -0.0404 H       
  41 H41           -0.6521    -2.4692     0.5139 H       
  42 H42           -0.1557    -4.8617     0.5447 H       
  43 H43            4.4833    -6.5357    -0.1764 H       
  44 H44            6.3646    -4.7690     1.1854 H       
  45 H45            8.5877    -3.8225     0.7397 H       
  46 H46            7.0217    -1.7423    -2.6653 H       
  47 H47            4.8001    -2.6960    -2.2276 H       
  48 H48           12.4114    -1.7171    -0.6680 H       
  49 H49           11.7298    -0.5766    -4.0184 H       
  50 H50           11.3404     0.8252    -2.9929 H       
  51 H51           13.9911     0.2960    -4.3524 H       
  52 H52           13.6016     1.6978    -3.3269 H       
  53 H53           15.3624     1.0123    -1.7212 H       
  54 H54           15.7518    -0.3895    -2.7467 H       
  55 H55           15.8589     3.8328    -2.7477 H       
  56 H56           16.5388     4.0812    -4.3738 H       
  57 H57           14.8731     3.4822    -4.1877 H       
  58 H58           18.5989     0.6343    -3.0648 H       
  59 H59           18.8894     2.2845    -3.6654 H       
  60 H60           18.2095     2.0361    -2.0393 H       
  61 H61           15.5387     1.0863    -5.9404 H       
  62 H62           17.2045     1.6853    -6.1266 H       
  63 H63           16.9140     0.0351    -5.5259 H       
  64 H64            1.2288     0.2739     2.6488 H       
  65 H65           -0.5165     0.5286     2.8887 H       
  66 H66           -0.8878    -1.8973     2.3157 H       
  67 H67            0.8785    -2.1106     2.2617 H       
  68 H68            1.0041    -1.2692     4.6256 H       
  69 H69           -0.7745    -1.2094     4.6626 H       
  70 H70            0.0597    -2.7702     4.4726 H       
@<TRIPOS>BOND
   1    1    2 1
   2    1    5 1
   3    2    3 am
   4    2    6 2
   5    3    4 1
   6    3    9 1
   7    4    5 1
   8    4   35 1
   9    4   38 1
  10    5   39 1
  11    5   40 1
  12    7    8 1
  13    7   12 1
  14    7   15 2
  15    8    9 2
  16    9   10 1
  17   10   11 2
  18   10   41 1
  19   11   12 1
  20   11   42 1
  21   12   13 1
  22   13   14 2
  23   14   15 1
  24   14   43 1
  25   15   16 1
  26   16   17 ar
  27   16   21 ar
  28   17   18 ar
  29   17   44 1
  30   18   19 ar
  31   18   45 1
  32   19   20 ar
  33   19   24 1
  34   20   21 ar
  35   20   46 1
  36   21   47 1
  37   22   23 1
  38   22   26 1
  39   22   27 1
  40   23   24 2
  41   24   25 1
  42   25   26 2
  43   26   48 1
  44   27   28 1
  45   27   49 1
  46   27   50 1
  47   28   29 1
  48   29   30 1
  49   29   51 1
  50   29   52 1
  51   30   31 1
  52   30   53 1
  53   30   54 1
  54   31   32 1
  55   31   33 1
  56   31   34 1
  57   32   55 1
  58   32   56 1
  59   32   57 1
  60   33   58 1
  61   33   59 1
  62   33   60 1
  63   34   61 1
  64   34   62 1
  65   34   63 1
  66   35   36 1
  67   35   64 1
  68   35   65 1
  69   36   37 1
  70   36   66 1
  71   36   67 1
  72   37   68 1
  73   37   69 1
  74   37   70 1

#	End of record

