#	Name: ASD03731867
#	Creating user name:	WinNT
#	Creation time:	15. 06. 2019 20:46

#	Modifying user name:	WinNT
#	Modification time:	15. 06. 2019 20:46

#	Program:	/corina/corina34_cracker 3.40 0067  02.08.2006

@<TRIPOS>MOLECULE
ASD03731867
  39   41    0    0    0
SMALL
NO_CHARGES


@<TRIPOS>ATOM
   1 C1             0.2731     1.4281     0.1903 C.2     
   2 C2             0.2463    -0.0377     0.0473 C.ar    
   3 C3             1.4381    -0.7713     0.1056 C.ar    
   4 C4             1.4069    -2.1445    -0.0284 C.ar    
   5 C5             0.1965    -2.7978    -0.2212 C.ar    
   6 C6            -0.9898    -2.0720    -0.2796 C.ar    
   7 C7            -0.9699    -0.7022    -0.1412 C.ar    
   8 O8             1.3305     2.0029     0.3590 O.2     
   9 O9            -0.8744     2.1323     0.1283 O.3     
  10 F10            2.6157    -0.1360     0.2922 F       
  11 O11            0.1704    -4.1481    -0.3534 O.3     
  12 C12            1.3341    -4.8287    -0.1812 C.ar    
  13 C13            1.8296    -5.0451     1.0966 C.ar    
  14 C14            3.0131    -5.7379     1.2695 C.ar    
  15 C15            3.7039    -6.2152     0.1679 C.ar    
  16 C16            3.2109    -5.9995    -1.1064 C.ar    
  17 C17            2.0250    -5.3127    -1.2826 C.ar    
  18 Cl18           5.1905    -7.0847     0.3867 Cl      
  19 Cl19           3.6342    -6.0095     2.8676 Cl      
  20 Cl20          -2.4984    -2.8964    -0.5208 Cl      
  21 C21           -0.7725     3.4857     0.2007 C.ar    
  22 C22           -0.3801     4.2136    -0.9134 C.ar    
  23 C23           -0.2777     5.5891    -0.8373 C.ar    
  24 C24           -0.5655     6.2404     0.3479 C.ar    
  25 C25           -0.9564     5.5173     1.4597 C.ar    
  26 C26           -1.0662     4.1422     1.3871 C.ar    
  27 C27           -0.4525     7.7411     0.4282 C.3     
  28 H28            2.3248    -2.7118     0.0162 H       
  29 H29           -1.8918    -0.1411    -0.1827 H       
  30 H30            1.2913    -4.6723     1.9554 H       
  31 H31            3.7513    -6.3719    -1.9642 H       
  32 H32            1.6385    -5.1486    -2.2776 H       
  33 H33           -0.1545     3.7052    -1.8391 H       
  34 H34            0.0277     6.1561    -1.7042 H       
  35 H35           -1.1803     6.0284     2.3844 H       
  36 H36           -1.3759     3.5782     2.2545 H       
  37 H37           -1.4078     8.1922     0.1598 H       
  38 H38           -0.1863     8.0315     1.4445 H       
  39 H39            0.3182     8.0848    -0.2617 H       
@<TRIPOS>BOND
   1    1    2 1
   2    1    8 2
   3    1    9 1
   4    2    3 ar
   5    2    7 ar
   6    3    4 ar
   7    3   10 1
   8    4    5 ar
   9    4   28 1
  10    5    6 ar
  11    5   11 1
  12    6    7 ar
  13    6   20 1
  14    7   29 1
  15    9   21 1
  16   11   12 1
  17   12   13 ar
  18   12   17 ar
  19   13   14 ar
  20   13   30 1
  21   14   15 ar
  22   14   19 1
  23   15   16 ar
  24   15   18 1
  25   16   17 ar
  26   16   31 1
  27   17   32 1
  28   21   22 ar
  29   21   26 ar
  30   22   23 ar
  31   22   33 1
  32   23   24 ar
  33   23   34 1
  34   24   25 ar
  35   24   27 1
  36   25   26 ar
  37   25   35 1
  38   26   36 1
  39   27   37 1
  40   27   38 1
  41   27   39 1

#	End of record

