#	Name: ASD00431118
#	Creating user name:	WinNT
#	Creation time:	15. 06. 2019 18:35

#	Modifying user name:	WinNT
#	Modification time:	15. 06. 2019 18:35

#	Program:	/corina/corina34_cracker 3.40 0067  02.08.2006

@<TRIPOS>MOLECULE
ASD00431118
  48   50    0    0    0
SMALL
NO_CHARGES


@<TRIPOS>ATOM
   1 N1             0.0108     1.3220     0.3446 N.am    
   2 C2             0.0309    -0.0254     0.3712 C.2     
   3 O3             1.0928    -0.6175     0.3801 O.2     
   4 N4            -1.1262    -0.7164     0.3879 N.am    
   5 C5             1.2685     2.0731     0.3264 C.3     
   6 C6             1.7670     2.1982    -1.1147 C.3     
   7 C7             1.0409     3.4478     0.9004 C.2     
   8 C8             1.8857     4.0912     1.7101 C.2     
   9 C9             1.4696     5.3437     2.1143 C.2     
  10 C10            0.2693     5.7228     1.6256 C.2     
  11 S11           -0.3734     4.4481     0.5981 S.3     
  12 S12            0.2318     8.2995     2.9243 S.3     
  13 C13           -1.1620     9.2385     2.6122 C.2     
  14 N14           -1.9696     8.5993     1.8254 N.2     
  15 C15           -1.5952     7.4018     1.4252 C.2     
  16 C16           -0.3960     7.0067     1.9052 C.2     
  17 O17           -1.3903    10.4753     3.1162 O.3     
  18 C18           -2.4987    11.1412     2.6960 C.ar    
  19 C19           -3.7600    10.6592     3.0147 C.ar    
  20 C20           -4.8859    11.3360     2.5881 C.ar    
  21 C21           -4.7556    12.4972     1.8407 C.ar    
  22 C22           -3.4946    12.9789     1.5217 C.ar    
  23 C23           -2.3685    12.3057     1.9533 C.ar    
  24 O24           -5.8641    13.1632     1.4205 O.3     
  25 C25           -7.1268    12.5406     1.6655 C.3     
  26 C26           -7.7030    13.0579     2.9851 C.3     
  27 C27           -8.0894    12.8729     0.5237 C.3     
  28 F28            0.8106     2.8716    -1.8822 F       
  29 F29            2.9680     2.9155    -1.1320 F       
  30 F30            1.9782     0.9220    -1.6475 F       
  31 H31           -0.8364     1.7943     0.3334 H       
  32 H32           -1.9733    -0.2440     0.3808 H       
  33 H33           -1.1117    -1.6861     0.4070 H       
  34 H34            2.0136     1.5485     0.9244 H       
  35 H35            2.8255     3.6628     2.0259 H       
  36 H36            2.0569     5.9701     2.7693 H       
  37 H37           -2.1957     6.7881     0.7700 H       
  38 H38           -3.8615     9.7547     3.5960 H       
  39 H39           -5.8678    10.9608     2.8362 H       
  40 H40           -3.3933    13.8829     0.9394 H       
  41 H41           -1.3867    12.6834     1.7090 H       
  42 H42           -6.9937    11.4604     1.7258 H       
  43 H43           -7.0172    12.8212     3.7986 H       
  44 H44           -7.8360    14.1381     2.9248 H       
  45 H45           -8.6661    12.5830     3.1721 H       
  46 H46           -7.6790    12.5043    -0.4164 H       
  47 H47           -9.0526    12.3980     0.7106 H       
  48 H48           -8.2225    13.9531     0.4634 H       
@<TRIPOS>BOND
   1    1    2 am
   2    1    5 1
   3    1   31 1
   4    2    3 2
   5    2    4 am
   6    4   32 1
   7    4   33 1
   8    5    6 1
   9    5    7 1
  10    5   34 1
  11    6   28 1
  12    6   29 1
  13    6   30 1
  14    7    8 2
  15    7   11 1
  16    8    9 1
  17    8   35 1
  18    9   10 2
  19    9   36 1
  20   10   11 1
  21   10   16 1
  22   12   13 1
  23   12   16 1
  24   13   14 2
  25   13   17 1
  26   14   15 1
  27   15   16 2
  28   15   37 1
  29   17   18 1
  30   18   19 ar
  31   18   23 ar
  32   19   20 ar
  33   19   38 1
  34   20   21 ar
  35   20   39 1
  36   21   22 ar
  37   21   24 1
  38   22   23 ar
  39   22   40 1
  40   23   41 1
  41   24   25 1
  42   25   26 1
  43   25   27 1
  44   25   42 1
  45   26   43 1
  46   26   44 1
  47   26   45 1
  48   27   46 1
  49   27   47 1
  50   27   48 1

#	End of record

