#	Name: ASD04590707
#	Creating user name:	WinNT
#	Creation time:	15. 06. 2019 20:51

#	Modifying user name:	WinNT
#	Modification time:	15. 06. 2019 20:51

#	Program:	/corina/corina34_cracker 3.40 0067  02.08.2006

@<TRIPOS>MOLECULE
ASD04590707
  64   70    0    0    0
SMALL
NO_CHARGES


@<TRIPOS>ATOM
   1 N1            -0.0171     1.3233    -0.0119 N.ar    
   2 C2             0.0017    -0.0035    -0.0051 C.ar    
   3 N3             1.1298    -0.6949    -0.0118 N.ar    
   4 C4             2.3050    -0.0727    -0.0262 C.ar    
   5 C5             2.3189     1.3367    -0.0341 C.ar    
   6 C6             1.1071     2.0203    -0.0261 C.ar    
   7 N7             3.6029    -0.5189    -0.0358 N.pl3   
   8 C8             4.4817     0.5514    -0.0499 C.ar    
   9 C9             3.7311     1.7389    -0.0495 C.ar    
  10 N10           -1.2020    -0.6888     0.0098 N.pl3   
  11 C11           -2.4019     0.0119     0.1303 C.ar    
  12 C12            4.0024    -1.9284    -0.0309 C.3     
  13 C13            3.4620    -2.6250     1.2302 C.3     
  14 C14            5.8705     0.6466    -0.0633 C.ar    
  15 N15            6.4581     1.8276    -0.0753 N.ar    
  16 C16            5.7743     2.9591    -0.0752 C.ar    
  17 C17            4.4066     2.9601    -0.0621 C.ar    
  18 C18            2.5296    -3.7540     0.7447 C.3     
  19 C19            3.0220    -4.0624    -0.6911 C.3     
  20 C20            3.3794    -2.6583    -1.2388 C.3     
  21 N21           -2.3784     1.3196     0.3309 N.ar    
  22 C22           -3.4885     2.0230     0.4504 C.ar    
  23 C23           -4.7292     1.4088     0.3690 C.ar    
  24 C24           -4.7936     0.0322     0.1583 C.ar    
  25 C25           -3.6094    -0.6709     0.0326 C.ar    
  26 N26           -5.9024     2.1618     0.4972 N.3     
  27 C27           -5.5956     3.5815     0.7124 C.3     
  28 C28           -6.8934     4.3930     0.6974 C.3     
  29 C29           -7.8250     3.8745     1.7952 C.3     
  30 C30           -8.0873     2.3819     1.5827 C.3     
  31 C31           -6.7529     1.6320     1.5706 C.3     
  32 F32            6.6208    -0.4769    -0.0636 F       
  33 O33           -7.2197     4.0797     3.0775 O.3     
  34 C34           -8.1073     4.9238     3.8389 C.3     
  35 C35           -9.4714     4.7264     3.1315 C.3     
  36 O36           -9.0686     4.5916     1.7471 O.3     
  37 H37            1.0847     3.1001    -0.0322 H       
  38 H38           -1.2104    -1.6560    -0.0635 H       
  39 H39            5.0889    -2.0084    -0.0652 H       
  40 H40            4.2863    -3.0439     1.8075 H       
  41 H41            2.9026    -1.9144     1.8386 H       
  42 H42            6.3051     3.8995    -0.0853 H       
  43 H43            3.8584     3.8906    -0.0621 H       
  44 H44            2.6323    -4.6335     1.3804 H       
  45 H45            1.4944    -3.4131     0.7280 H       
  46 H46            3.9031    -4.7037    -0.6679 H       
  47 H47            2.2274    -4.5170    -1.2827 H       
  48 H48            2.4814    -2.1404    -1.5758 H       
  49 H49            4.1023    -2.7382    -2.0506 H       
  50 H50           -3.4302     3.0889     0.6138 H       
  51 H51           -5.7459    -0.4726     0.0910 H       
  52 H52           -3.6221    -1.7383    -0.1316 H       
  53 H53           -5.1017     3.7043     1.6763 H       
  54 H54           -4.9369     3.9351    -0.0808 H       
  55 H55           -6.6677     5.4440     0.8778 H       
  56 H56           -7.3787     4.2855    -0.2727 H       
  57 H57           -8.7105     2.0029     2.3926 H       
  58 H58           -8.5968     2.2338     0.6305 H       
  59 H59           -6.9342     0.5708     1.4001 H       
  60 H60           -6.2526     1.7654     2.5297 H       
  61 H61           -8.1595     4.5919     4.8758 H       
  62 H62           -7.7912     5.9655     3.7822 H       
  63 H63           -9.9662     3.8213     3.4838 H       
  64 H64          -10.1117     5.5978     3.2685 H       
@<TRIPOS>BOND
   1    1    2 ar
   2    1    6 ar
   3    2    3 ar
   4    2   10 1
   5    3    4 ar
   6    4    5 ar
   7    4    7 1
   8    5    6 ar
   9    5    9 1
  10    6   37 1
  11    7    8 1
  12    7   12 1
  13    8    9 ar
  14    8   14 ar
  15    9   17 ar
  16   10   11 1
  17   10   38 1
  18   11   21 ar
  19   11   25 ar
  20   12   13 1
  21   12   20 1
  22   12   39 1
  23   13   18 1
  24   13   40 1
  25   13   41 1
  26   14   15 ar
  27   14   32 1
  28   15   16 ar
  29   16   17 ar
  30   16   42 1
  31   17   43 1
  32   18   19 1
  33   18   44 1
  34   18   45 1
  35   19   20 1
  36   19   46 1
  37   19   47 1
  38   20   48 1
  39   20   49 1
  40   21   22 ar
  41   22   23 ar
  42   22   50 1
  43   23   24 ar
  44   23   26 1
  45   24   25 ar
  46   24   51 1
  47   25   52 1
  48   26   27 1
  49   26   31 1
  50   27   28 1
  51   27   53 1
  52   27   54 1
  53   28   29 1
  54   28   55 1
  55   28   56 1
  56   29   30 1
  57   29   33 1
  58   29   36 1
  59   30   31 1
  60   30   57 1
  61   30   58 1
  62   31   59 1
  63   31   60 1
  64   33   34 1
  65   34   35 1
  66   34   61 1
  67   34   62 1
  68   35   36 1
  69   35   63 1
  70   35   64 1

#	End of record

