#	Name: ASD07300346
#	Creating user name:	WinNT
#	Creation time:	15. 06. 2019 21:09

#	Modifying user name:	WinNT
#	Modification time:	15. 06. 2019 21:09

#	Program:	/corina/corina34_cracker 3.40 0067  02.08.2006

@<TRIPOS>MOLECULE
ASD07300346
  36   38    0    0    0
SMALL
NO_CHARGES


@<TRIPOS>ATOM
   1 C1            -0.0169     1.3940     0.0097 C.ar    
   2 C2             0.0021    -0.0041     0.0020 C.ar    
   3 C3             1.2191    -0.6684    -0.0132 C.ar    
   4 C4             2.3836     0.0929    -0.0202 C.ar    
   5 C5             2.2881     1.4765    -0.0119 C.ar    
   6 N6             1.1146     2.0785     0.0026 N.ar    
   7 C7            -2.1147     0.6611     0.0347 C.2     
   8 N8            -1.3563     1.7730     0.0302 N.am    
   9 N9            -1.3233    -0.4283     0.0129 N.am    
  10 O10           -3.3312     0.6429     0.0520 O.2     
  11 O11            3.6012    -0.5125    -0.0347 O.3     
  12 C12            4.7489     0.3388    -0.0411 C.3     
  13 C13           -1.8349     3.0917     0.0445 C.ar    
  14 C14           -3.2017     3.3342     0.0645 C.ar    
  15 C15           -3.6722     4.6324     0.0785 C.ar    
  16 C16           -2.7794     5.6941     0.0726 C.ar    
  17 C17           -1.4136     5.4524     0.0526 C.ar    
  18 C18           -0.9418     4.1546     0.0443 C.ar    
  19 O19           -3.2433     6.9721     0.0860 O.3     
  20 C20           -1.7792    -1.8205     0.0099 C.3     
  21 C21           -1.9236    -2.3129     1.4513 C.3     
  22 H22            1.2619    -1.7476    -0.0190 H       
  23 H23            3.1898     2.0710    -0.0170 H       
  24 H24            5.6529    -0.2702    -0.0527 H       
  25 H25            4.7264     0.9724    -0.9278 H       
  26 H26            4.7430     0.9634     0.8521 H       
  27 H27           -3.8968     2.5077     0.0687 H       
  28 H28           -4.7355     4.8211     0.0937 H       
  29 H29           -0.7189     6.2794     0.0476 H       
  30 H30            0.1216     3.9665     0.0333 H       
  31 H31           -3.3657     7.3369     0.9731 H       
  32 H32           -2.7431    -1.8862    -0.4948 H       
  33 H33           -1.0515    -2.4399    -0.5145 H       
  34 H34           -2.2627    -3.3488     1.4491 H       
  35 H35           -0.9597    -2.2473     1.9560 H       
  36 H36           -2.6512    -1.6935     1.9757 H       
@<TRIPOS>BOND
   1    1    2 ar
   2    1    6 ar
   3    1    8 1
   4    2    3 ar
   5    2    9 1
   6    3    4 ar
   7    3   22 1
   8    4    5 ar
   9    4   11 1
  10    5    6 ar
  11    5   23 1
  12    7    8 am
  13    7    9 am
  14    7   10 2
  15    8   13 1
  16    9   20 1
  17   11   12 1
  18   12   24 1
  19   12   25 1
  20   12   26 1
  21   13   14 ar
  22   13   18 ar
  23   14   15 ar
  24   14   27 1
  25   15   16 ar
  26   15   28 1
  27   16   17 ar
  28   16   19 1
  29   17   18 ar
  30   17   29 1
  31   18   30 1
  32   19   31 1
  33   20   21 1
  34   20   32 1
  35   20   33 1
  36   21   34 1
  37   21   35 1
  38   21   36 1

#	End of record

