#	Name: ASD01810022
#	Creating user name:	WinNT
#	Creation time:	15. 06. 2019 19:23

#	Modifying user name:	WinNT
#	Modification time:	15. 06. 2019 19:23

#	Program:	/corina/corina34_cracker 3.40 0067  02.08.2006

@<TRIPOS>MOLECULE
ASD01810022
  40   45    0    0    0
SMALL
NO_CHARGES


@<TRIPOS>ATOM
   1 N1            -0.0162     1.3468     0.0094 N.am    
   2 C2             0.0021    -0.0041     0.0020 C.2     
   3 C3            -1.2717    -0.7346    -0.3502 C.3     
   4 C4            -2.5178    -0.1153     0.2781 C.3     
   5 C5            -2.5105     1.3809     0.1236 C.ar    
   6 C6            -1.2605     1.9823     0.0315 C.ar    
   7 C7            -3.6222     2.1780     0.0693 C.ar    
   8 C8            -3.4852     3.5644    -0.0504 C.ar    
   9 C9            -2.2411     4.1552    -0.1022 C.ar    
  10 C10           -1.0973     3.3548    -0.0535 C.ar    
  11 C11            0.9720     2.3084     0.0052 C.ar    
  12 C12            0.3611     3.5786    -0.0435 C.ar    
  13 C13            1.1462     4.7286    -0.0688 C.ar    
  14 C14            2.5227     4.6306    -0.0392 C.ar    
  15 C15            3.1313     3.3750     0.0156 C.ar    
  16 C16            2.3601     2.2286     0.0392 C.ar    
  17 C17           -4.7485     4.3836    -0.1261 C.3     
  18 N18           -4.4728     5.7891     0.1842 N.3     
  19 C19           -3.3813     6.2934    -0.6642 C.3     
  20 C20           -2.0742     5.6486    -0.2033 C.3     
  21 O21            1.0150    -0.6140     0.2707 O.2     
  22 O22            3.4973     5.5874    -0.0527 O.3     
  23 C23            4.6901     4.9264     0.4089 C.3     
  24 O24            4.4858     3.5506     0.0379 O.3     
  25 H25           -1.3883    -0.7315    -1.4339 H       
  26 H26           -1.1869    -1.7677    -0.0132 H       
  27 H27           -3.4043    -0.5214    -0.2091 H       
  28 H28           -2.5466    -0.3657     1.3386 H       
  29 H29           -4.6061     1.7354     0.1187 H       
  30 H30            0.6766     5.7002    -0.1120 H       
  31 H31            2.8396     1.2618     0.0822 H       
  32 H32           -5.1631     4.3124    -1.1317 H       
  33 H33           -5.4730     3.9934     0.5888 H       
  34 H34           -5.3031     6.3524     0.0780 H       
  35 H35           -3.5734     6.0304    -1.7044 H       
  36 H36           -3.3107     7.3767    -0.5661 H       
  37 H37           -1.7984     6.0483     0.7726 H       
  38 H38           -1.2860     5.8765    -0.9209 H       
  39 H39            5.5700     5.3311    -0.0912 H       
  40 H40            4.7860     5.0211     1.4906 H       
@<TRIPOS>BOND
   1    1    2 am
   2    1   11 1
   3    1    6 1
   4    2    3 1
   5    2   21 2
   6    3    4 1
   7    3   25 1
   8    3   26 1
   9    4    5 1
  10    4   27 1
  11    4   28 1
  12    5    6 ar
  13    5    7 ar
  14    6   10 ar
  15    7    8 ar
  16    7   29 1
  17    8    9 ar
  18    8   17 1
  19    9   10 ar
  20    9   20 1
  21   10   12 1
  22   11   12 ar
  23   11   16 ar
  24   12   13 ar
  25   13   14 ar
  26   13   30 1
  27   14   15 ar
  28   14   22 1
  29   15   16 ar
  30   15   24 1
  31   16   31 1
  32   17   18 1
  33   17   32 1
  34   17   33 1
  35   18   19 1
  36   18   34 1
  37   19   20 1
  38   19   35 1
  39   19   36 1
  40   20   37 1
  41   20   38 1
  42   22   23 1
  43   23   24 1
  44   23   39 1
  45   23   40 1

#	End of record

