#	Name: ASD01901234
#	Creating user name:	WinNT
#	Creation time:	15. 06. 2019 19:53

#	Modifying user name:	WinNT
#	Modification time:	15. 06. 2019 19:53

#	Program:	/corina/corina34_cracker 3.40 0067  02.08.2006

@<TRIPOS>MOLECULE
ASD01901234
  49   52    0    0    0
SMALL
NO_CHARGES


@<TRIPOS>ATOM
   1 C1            -0.8187     1.4952    -0.0373 C.ar    
   2 C2            -0.9079     0.1189    -0.0447 C.ar    
   3 C3             0.2405    -0.6524    -0.0140 C.ar    
   4 C4             1.4859    -0.0503     0.0247 C.ar    
   5 C5             1.5908     1.3248     0.0325 C.ar    
   6 C6             0.4354     2.1104     0.0012 C.ar    
   7 C7             0.5362     3.5388     0.0091 C.1     
   8 C8             0.6188     4.7099     0.0156 C.1     
   9 C9             0.7196     6.1383     0.0235 C.ar    
  10 C10           -0.3354     8.2976     0.0060 C.ar    
  11 C11           -0.4372     6.9226    -0.0016 C.ar    
  12 C12            1.9752     6.7522     0.0620 C.ar    
  13 C13            2.0683     8.1266     0.0695 C.ar    
  14 C14            0.9162     8.9037     0.0391 C.ar    
  15 N15            1.0156    10.3003     0.0463 N.am    
  16 N16            1.1325    12.2905     1.3069 N.am    
  17 C17            1.0389    10.9525     1.2192 C.2     
  18 C18            1.0919    10.9650    -1.1270 C.2     
  19 C19            1.2104    13.0703     0.1621 C.ar    
  20 O20            1.0748    10.3663    -2.1853 O.2     
  21 Cl21          -1.7708     9.2735    -0.0257 Cl      
  22 O22            0.9719    10.3053     2.2462 O.2     
  23 C23            1.1958    12.4344    -1.0917 C.ar    
  24 C24            1.3082    14.4516     0.2292 C.ar    
  25 C25            1.2789    13.1913    -2.2582 C.ar    
  26 C26            1.3752    14.5643    -2.1715 C.ar    
  27 C27            1.3899    15.1903    -0.9344 C.ar    
  28 C28            1.1516    12.9317     2.6240 C.3     
  29 C29           -0.1400    12.5972     3.3728 C.3     
  30 C30            2.3516    12.4195     3.4232 C.3     
  31 H31           -1.7157     2.0960    -0.0658 H       
  32 H32           -1.8765    -0.3579    -0.0741 H       
  33 H33            0.1645    -1.7298    -0.0199 H       
  34 H34            2.3779    -0.6588     0.0492 H       
  35 H35            2.5634     1.7934     0.0631 H       
  36 H36           -1.4091     6.4523    -0.0273 H       
  37 H37            2.8711     6.1496     0.0864 H       
  38 H38            3.0380     8.6012     0.0993 H       
  39 H39            1.3251    14.9478     1.1884 H       
  40 H40            1.2684    12.7065    -3.2232 H       
  41 H41            1.4398    15.1556    -3.0729 H       
  42 H42            1.4657    16.2663    -0.8804 H       
  43 H43            1.2311    14.0118     2.5012 H       
  44 H44           -0.2195    11.5170     3.4956 H       
  45 H45           -0.1258    13.0742     4.3528 H       
  46 H46           -0.9949    12.9620     2.8035 H       
  47 H47            3.2718    12.6578     2.8897 H       
  48 H48            2.3658    12.8965     4.4032 H       
  49 H49            2.2721    11.3394     3.5460 H       
@<TRIPOS>BOND
   1    1    2 ar
   2    1    6 ar
   3    1   31 1
   4    2    3 ar
   5    2   32 1
   6    3    4 ar
   7    3   33 1
   8    4    5 ar
   9    4   34 1
  10    5    6 ar
  11    5   35 1
  12    6    7 1
  13    7    8 3
  14    8    9 1
  15    9   12 ar
  16    9   11 ar
  17   10   11 ar
  18   10   14 ar
  19   10   21 1
  20   11   36 1
  21   12   13 ar
  22   12   37 1
  23   13   14 ar
  24   13   38 1
  25   14   15 1
  26   15   18 am
  27   15   17 am
  28   16   17 am
  29   16   19 1
  30   16   28 1
  31   17   22 2
  32   18   23 1
  33   18   20 2
  34   19   23 ar
  35   19   24 ar
  36   23   25 ar
  37   24   27 ar
  38   24   39 1
  39   25   26 ar
  40   25   40 1
  41   26   27 ar
  42   26   41 1
  43   27   42 1
  44   28   29 1
  45   28   30 1
  46   28   43 1
  47   29   44 1
  48   29   45 1
  49   29   46 1
  50   30   47 1
  51   30   48 1
  52   30   49 1

#	End of record

