#	Name: ASD01814095
#	Creating user name:	WinNT
#	Creation time:	15. 06. 2019 19:31

#	Modifying user name:	WinNT
#	Modification time:	15. 06. 2019 19:31

#	Program:	/corina/corina34_cracker 3.40 0067  02.08.2006

@<TRIPOS>MOLECULE
ASD01814095
  44   47    0    0    0
SMALL
NO_CHARGES


@<TRIPOS>ATOM
   1 C1             1.1584     2.2494    -0.5153 C.ar    
   2 C2             0.7819     0.9152    -0.4999 C.ar    
   3 C3             1.7237    -0.0819    -0.3473 C.ar    
   4 C4             3.0706     0.2475    -0.2069 C.ar    
   5 C5             3.4508     1.6003    -0.2232 C.ar    
   6 C6             2.4866     2.5995    -0.3780 C.ar    
   7 N7             4.0208    -0.7400    -0.0528 N.pl3   
   8 C8             5.3259    -0.4752     0.0866 C.2     
   9 C9             5.8188     0.8141     0.0867 C.2     
  10 C10            4.8781     1.9351    -0.0738 C.2     
  11 O11            5.2633     3.0912    -0.0809 O.2     
  12 C12            7.2585     1.0635     0.2434 C.2     
  13 O13            7.7277     2.3273     0.2419 O.3     
  14 O14            8.0264     0.1302     0.3745 O.2     
  15 C15            3.5837    -2.1382    -0.0406 C.3     
  16 C16            3.4403    -2.6321    -1.4571 C.ar    
  17 C17            4.5224    -2.5815    -2.3197 C.ar    
  18 C18            4.3924    -3.0346    -3.6206 C.ar    
  19 C19            3.1765    -3.5398    -4.0591 C.ar    
  20 C20            2.0939    -3.5891    -3.1907 C.ar    
  21 C21            2.2300    -3.1402    -1.8917 C.ar    
  22 N22            3.0412    -3.9992    -5.3765 N.pl3   
  23 F23            1.3401    -1.3772    -0.3336 F       
  24 C24            1.9188    -4.5125    -5.9290 C.2     
  25 C25            2.2020    -4.8351    -7.2123 C.2     
  26 C26            3.5411    -4.5086    -7.4531 C.2     
  27 N27            4.0431    -4.0022    -6.3556 N.2     
  28 F28            5.7053    -2.0893    -1.8911 F       
  29 F29            2.8520     3.9001    -0.3941 F       
  30 C30            4.2771    -4.7014    -8.7540 C.3     
  31 H31            0.4098     3.0180    -0.6397 H       
  32 H32           -0.2602     0.6532    -0.6083 H       
  33 H33            6.0159    -1.2978     0.2033 H       
  34 H34            8.6821     2.4414     0.3480 H       
  35 H35            4.3223    -2.7453     0.4828 H       
  36 H36            2.6235    -2.2142     0.4697 H       
  37 H37            5.2358    -2.9947    -4.2940 H       
  38 H38            1.1468    -3.9819    -3.5299 H       
  39 H39            1.3878    -3.1788    -1.2168 H       
  40 H40            0.9672    -4.6419    -5.4349 H       
  41 H41            1.5157    -5.2681    -7.9249 H       
  42 H42            4.1712    -3.8066    -9.3674 H       
  43 H43            5.3331    -4.8798    -8.5510 H       
  44 H44            3.8594    -5.5571    -9.2844 H       
@<TRIPOS>BOND
   1    1    2 ar
   2    1    6 ar
   3    1   31 1
   4    2    3 ar
   5    2   32 1
   6    3    4 ar
   7    3   23 1
   8    4    5 ar
   9    4    7 1
  10    5    6 ar
  11    5   10 1
  12    6   29 1
  13    7    8 1
  14    7   15 1
  15    8    9 2
  16    8   33 1
  17    9   10 1
  18    9   12 1
  19   10   11 2
  20   12   13 1
  21   12   14 2
  22   13   34 1
  23   15   16 1
  24   15   35 1
  25   15   36 1
  26   16   17 ar
  27   16   21 ar
  28   17   18 ar
  29   17   28 1
  30   18   19 ar
  31   18   37 1
  32   19   20 ar
  33   19   22 1
  34   20   21 ar
  35   20   38 1
  36   21   39 1
  37   22   24 1
  38   22   27 1
  39   24   25 2
  40   24   40 1
  41   25   26 1
  42   25   41 1
  43   26   27 2
  44   26   30 1
  45   30   42 1
  46   30   43 1
  47   30   44 1

#	End of record

