#	Name: ASD01903152
#	Creating user name:	WinNT
#	Creation time:	15. 06. 2019 19:54

#	Modifying user name:	WinNT
#	Modification time:	15. 06. 2019 19:54

#	Program:	/corina/corina34_cracker 3.40 0067  02.08.2006

@<TRIPOS>MOLECULE
ASD01903152
  48   50    0    0    0
SMALL
NO_CHARGES


@<TRIPOS>ATOM
   1 C1             1.7356    -1.7062     2.0627 C.ar    
   2 C2             0.7271    -1.1752     1.2743 C.ar    
   3 C3             1.0009    -0.0842     0.4645 C.ar    
   4 N4             2.2017     0.4509     0.4356 N.ar    
   5 C5             3.1952    -0.0273     1.1750 C.ar    
   6 C6             2.9916    -1.1218     2.0120 C.ar    
   7 C7             4.5315     0.6086     1.1093 C.2     
   8 N8             4.7347     1.6680     0.3013 N.am    
   9 O9             5.4445     0.1750     1.7840 O.2     
  10 C10            5.9677     2.3275     0.3099 C.ar    
  11 C11            7.1415     1.6063     0.4868 C.ar    
  12 C12            8.3576     2.2607     0.4948 C.ar    
  13 C13            8.4075     3.6324     0.3269 C.ar    
  14 C14            7.2407     4.3535     0.1510 C.ar    
  15 C15            6.0217     3.7044     0.1358 C.ar    
  16 S16            9.9612     4.4635     0.3378 S.o2    
  17 O17            9.6929     5.8112     0.6996 O.2     
  18 O18           10.8576     3.6290     1.0585 O.2     
  19 N19           10.5091     4.4989    -1.2245 N.am    
  20 C20            9.7576     5.1450    -2.2166 C.ar    
  21 C21            9.7185     4.6278    -3.5092 C.ar    
  22 C22            8.9750     5.2680    -4.4867 C.ar    
  23 C23            8.2711     6.4221    -4.1770 C.ar    
  24 C24            8.3110     6.9359    -2.8895 C.ar    
  25 C25            9.0479     6.2964    -1.9103 C.ar    
  26 O26            7.5414     7.0510    -5.1370 O.3     
  27 C27            6.8413     8.2346    -4.7485 C.3     
  28 O28           10.4098     3.4961    -3.8112 O.3     
  29 C29           10.3238     3.0230    -5.1569 C.3     
  30 H30            1.5461    -2.5533     2.7054 H       
  31 H31           -0.2625    -1.6075     1.2905 H       
  32 H32            0.2174     0.3319    -0.1514 H       
  33 H33            3.8009    -1.5100     2.6127 H       
  34 H34            4.0256     1.9730    -0.2861 H       
  35 H35            7.1032     0.5350     0.6183 H       
  36 H36            9.2707     1.7006     0.6327 H       
  37 H37            7.2831     5.4247     0.0205 H       
  38 H38            5.1108     4.2681    -0.0016 H       
  39 H39           11.3499     4.0727    -1.4534 H       
  40 H40            8.9436     4.8688    -5.4898 H       
  41 H41            7.7622     7.8348    -2.6504 H       
  42 H42            9.0774     6.6980    -0.9082 H       
  43 H43            6.3010     8.6352    -5.6062 H       
  44 H44            6.1349     7.9946    -3.9538 H       
  45 H45            7.5541     8.9769    -4.3891 H       
  46 H46           10.7024     3.7873    -5.8356 H       
  47 H47           10.9197     2.1163    -5.2620 H       
  48 H48            9.2839     2.8045    -5.3995 H       
@<TRIPOS>BOND
   1    1    2 ar
   2    1    6 ar
   3    1   30 1
   4    2    3 ar
   5    2   31 1
   6    3    4 ar
   7    3   32 1
   8    4    5 ar
   9    5    6 ar
  10    5    7 1
  11    6   33 1
  12    7    8 am
  13    7    9 2
  14    8   10 1
  15    8   34 1
  16   10   11 ar
  17   10   15 ar
  18   11   12 ar
  19   11   35 1
  20   12   13 ar
  21   12   36 1
  22   13   14 ar
  23   13   16 1
  24   14   15 ar
  25   14   37 1
  26   15   38 1
  27   16   17 2
  28   16   18 2
  29   16   19 am
  30   19   20 1
  31   19   39 1
  32   20   21 ar
  33   20   25 ar
  34   21   22 ar
  35   21   28 1
  36   22   23 ar
  37   22   40 1
  38   23   24 ar
  39   23   26 1
  40   24   25 ar
  41   24   41 1
  42   25   42 1
  43   26   27 1
  44   27   43 1
  45   27   44 1
  46   27   45 1
  47   28   29 1
  48   29   46 1
  49   29   47 1
  50   29   48 1

#	End of record

