#	Name: ASD06020013
#	Creating user name:	WinNT
#	Creation time:	15. 06. 2019 21:04

#	Modifying user name:	WinNT
#	Modification time:	15. 06. 2019 21:04

#	Program:	/corina/corina34_cracker 3.40 0067  02.08.2006

@<TRIPOS>MOLECULE
ASD06020013
  38   41    0    0    0
SMALL
NO_CHARGES


@<TRIPOS>ATOM
   1 C1             0.0070    -0.0032     0.0570 C.1     
   2 C2            -0.0132     1.4286     0.0547 C.ar    
   3 C3             1.1872     2.1441     0.0334 C.ar    
   4 C4             1.1690     3.5214     0.0312 C.ar    
   5 C5            -0.0506     4.2046     0.0508 C.ar    
   6 C6            -1.2521     3.4889     0.0721 C.ar    
   7 C7            -1.2326     2.1096     0.0680 C.ar    
   8 N8             0.0230    -1.1391     0.0588 N.1     
   9 C9            -0.8859     9.4881     0.0607 C.ar    
  10 C10           -0.5461     8.1309     0.0559 C.ar    
  11 C11            0.8028     7.7572     0.0342 C.ar    
  12 C12            1.7615     8.8024     0.0181 C.ar    
  13 C13            1.3434    10.0955     0.0242 C.ar    
  14 N14            0.0582    10.4128     0.0449 N.ar    
  15 S15           -1.5259     6.6689     0.0726 S.3     
  16 C16           -0.0702     5.6817     0.0494 C.2     
  17 N17            0.9807     6.4359     0.0319 N.2     
  18 N18           -2.2254     9.8664     0.0765 N.pl3   
  19 C19           -1.9491    13.3996     0.5070 C.ar    
  20 N20           -1.6286    12.1263     0.3960 N.ar    
  21 C21           -2.5664    11.2057     0.1932 C.ar    
  22 C22           -3.9000    11.6090     0.0992 C.ar    
  23 C23           -4.1882    12.9540     0.2217 C.ar    
  24 N24           -3.1977    13.8119     0.4229 N.ar    
  25 C25           -5.6114    13.4406     0.1277 C.3     
  26 O26           -6.4817    12.3284    -0.0898 O.3     
  27 F27           -2.4311     4.1482     0.0915 F       
  28 Cl28           2.6607     4.4090     0.0046 Cl      
  29 H29            2.1296     1.6167     0.0190 H       
  30 H30           -2.1600     1.5564     0.0797 H       
  31 H31            2.8165     8.5723     0.0014 H       
  32 H32            2.0794    10.8858     0.0122 H       
  33 H33           -2.9203     9.1934     0.0059 H       
  34 H34           -1.1670    14.1250     0.6759 H       
  35 H35           -4.6863    10.8871    -0.0655 H       
  36 H36           -5.8863    13.9410     1.0562 H       
  37 H37           -5.7019    14.1407    -0.7029 H       
  38 H38           -7.4159    12.5679    -0.1605 H       
@<TRIPOS>BOND
   1    1    2 1
   2    1    8 3
   3    2    3 ar
   4    2    7 ar
   5    3    4 ar
   6    3   29 1
   7    4    5 ar
   8    4   28 1
   9    5    6 ar
  10    5   16 1
  11    6    7 ar
  12    6   27 1
  13    7   30 1
  14    9   10 ar
  15    9   14 ar
  16    9   18 1
  17   10   11 ar
  18   10   15 1
  19   11   12 ar
  20   11   17 1
  21   12   13 ar
  22   12   31 1
  23   13   14 ar
  24   13   32 1
  25   15   16 1
  26   16   17 2
  27   18   21 1
  28   18   33 1
  29   19   20 ar
  30   19   24 ar
  31   19   34 1
  32   20   21 ar
  33   21   22 ar
  34   22   23 ar
  35   22   35 1
  36   23   24 ar
  37   23   25 1
  38   25   26 1
  39   25   36 1
  40   25   37 1
  41   26   38 1

#	End of record

