#	Name: ASD01150994
#	Creating user name:	WinNT
#	Creation time:	15. 06. 2019 19:05

#	Modifying user name:	WinNT
#	Modification time:	15. 06. 2019 19:05

#	Program:	/corina/corina34_cracker 3.40 0067  02.08.2006

@<TRIPOS>MOLECULE
ASD01150994
  37   38    0    0    0
SMALL
NO_CHARGES


@<TRIPOS>ATOM
   1 C1            -0.0167     1.3800     0.0096 C.ar    
   2 C2             0.0021    -0.0041     0.0020 C.ar    
   3 C3             1.2080    -0.6868    -0.0127 C.ar    
   4 C4             2.3978     0.0089    -0.0198 C.ar    
   5 C5             2.3872     1.4058    -0.0127 C.ar    
   6 C6             1.1681     2.0891     0.0021 C.ar    
   7 Cl7            1.1436     3.8250     0.0105 Cl      
   8 Cl8           -1.4916    -0.8886     0.0115 Cl      
   9 C9             3.6583     2.1570    -0.0198 C.2     
  10 N10            4.8322     1.4950    -0.0332 N.am    
  11 O11            3.6460     3.3726    -0.0135 O.2     
  12 C12            6.0242     2.1994    -0.0398 C.2     
  13 S13            6.1731     3.9029    -0.0319 S.3     
  14 C14            7.9273     3.7737    -0.0481 C.2     
  15 N15            8.2765     2.5359    -0.0578 N.2     
  16 C16            7.2800     1.6444    -0.0479 C.2     
  17 C17            8.8804     4.9410    -0.0506 C.3     
  18 C18            9.1902     5.3434    -1.4938 C.3     
  19 C19            7.5086     0.1980    -0.0565 C.2     
  20 O20            8.7677    -0.2857    -0.0756 O.3     
  21 O21            6.5631    -0.5673    -0.0463 O.2     
  22 C22            8.9191    -1.7298    -0.0831 C.3     
  23 C23           10.4067    -2.0866    -0.1049 C.3     
  24 H24           -0.9598     1.9063     0.0169 H       
  25 H25            1.2155    -1.7667    -0.0182 H       
  26 H26            3.3365    -0.5249    -0.0306 H       
  27 H27            4.8420     0.5250    -0.0382 H       
  28 H28            8.4253     5.7827     0.4716 H       
  29 H29            9.8040     4.6571     0.4537 H       
  30 H30            8.2665     5.6274    -1.9981 H       
  31 H31            9.8795     6.1877    -1.4957 H       
  32 H32            9.6452     4.5017    -2.0160 H       
  33 H33            8.4582    -2.1481     0.8118 H       
  34 H34            8.4337    -2.1414    -0.9680 H       
  35 H35           10.8676    -1.6683    -0.9997 H       
  36 H36           10.8921    -1.6750     0.7801 H       
  37 H37           10.5204    -3.1706    -0.1105 H       
@<TRIPOS>BOND
   1    1    2 ar
   2    1    6 ar
   3    1   24 1
   4    2    3 ar
   5    2    8 1
   6    3    4 ar
   7    3   25 1
   8    4    5 ar
   9    4   26 1
  10    5    6 ar
  11    5    9 1
  12    6    7 1
  13    9   10 am
  14    9   11 2
  15   10   12 1
  16   10   27 1
  17   12   13 1
  18   12   16 2
  19   13   14 1
  20   14   15 2
  21   14   17 1
  22   15   16 1
  23   16   19 1
  24   17   18 1
  25   17   28 1
  26   17   29 1
  27   18   30 1
  28   18   31 1
  29   18   32 1
  30   19   20 1
  31   19   21 2
  32   20   22 1
  33   22   23 1
  34   22   33 1
  35   22   34 1
  36   23   35 1
  37   23   36 1
  38   23   37 1

#	End of record

