#	Name: ASD01882453
#	Creating user name:	WinNT
#	Creation time:	15. 06. 2019 19:44

#	Modifying user name:	WinNT
#	Modification time:	15. 06. 2019 19:44

#	Program:	/corina/corina34_cracker 3.40 0067  02.08.2006

@<TRIPOS>MOLECULE
ASD01882453
  61   66    0    0    0
SMALL
NO_CHARGES


@<TRIPOS>ATOM
   1 C1            -0.2106     1.6087    -0.2624 C.3     
   2 N2            -0.0992     0.1434    -0.1818 N.pl3   
   3 C3             1.2345     0.3288     0.4124 C.3     
   4 C4             1.3162     1.6631    -0.3298 C.3     
   5 C5             1.8830     1.5598    -1.7419 C.3     
   6 N6             1.7416     2.8576    -2.4185 N.3     
   7 C7             2.4465     3.9167    -1.6856 C.3     
   8 C8             1.8121     4.1020    -0.3054 C.3     
   9 C9             1.9363     2.7944     0.4855 C.3     
  10 C10            2.2081     2.7798    -3.8093 C.3     
  11 C11            1.8256     4.0419    -4.5387 C.ar    
  12 C12            2.5867     5.1886    -4.3839 C.ar    
  13 C13            2.2355     6.3473    -5.0542 C.ar    
  14 C14            1.1236     6.3587    -5.8789 C.ar    
  15 C15            0.3643     5.2112    -6.0322 C.ar    
  16 C16            0.7190     4.0530    -5.3662 C.ar    
  17 F17            0.7793     7.4892    -6.5335 F       
  18 F18            3.6713     5.1762    -3.5784 F       
  19 C19           -2.9069    -2.2220    -0.2637 C.2     
  20 C20           -2.1133    -1.1189     0.0941 C.2     
  21 C21           -0.9027    -0.9416    -0.5189 C.2     
  22 C22           -0.4743    -1.8665    -1.4961 C.2     
  23 C23           -1.2515    -2.9172    -1.8238 C.2     
  24 N24           -2.4601    -3.1029    -1.2185 N.pl3   
  25 N25           -4.3918    -3.7338    -0.5037 N.2     
  26 N26           -4.0900    -2.6606     0.1385 N.2     
  27 C27           -3.4371    -4.0471    -1.3395 C.2     
  28 C28           -2.5894    -0.1432     1.1392 C.3     
  29 F29           -3.1954     0.9516     0.5136 F       
  30 F30           -3.5158    -0.7729     1.9774 F       
  31 F31           -1.4991     0.2974     1.8970 F       
  32 C32           -3.4183    -5.2352    -2.2663 C.3     
  33 C33           -2.7755    -6.4273    -1.5545 C.3     
  34 C34           -2.7678    -7.7689    -2.2899 C.3     
  35 C35           -1.4693    -6.9751    -2.1331 C.3     
  36 H36           -0.6984     1.9579    -1.1725 H       
  37 H37           -0.6223     2.0633     0.6387 H       
  38 H38            1.2159     0.4354     1.4970 H       
  39 H39            1.9672    -0.4030     0.0723 H       
  40 H40            2.9376     1.2886    -1.6917 H       
  41 H41            1.3370     0.7980    -2.2983 H       
  42 H42            3.4944     3.6407    -1.5686 H       
  43 H43            2.3788     4.8504    -2.2438 H       
  44 H44            2.3275     4.9007     0.2281 H       
  45 H45            0.7593     4.3597    -0.4201 H       
  46 H46            1.4102     2.8908     1.4352 H       
  47 H47            2.9885     2.5775     0.6695 H       
  48 H48            3.2921     2.6665    -3.8231 H       
  49 H49            1.7468     1.9227    -4.2998 H       
  50 H50            2.8282     7.2421    -4.9338 H       
  51 H51           -0.5032     5.2198    -6.6755 H       
  52 H52            0.1285     3.1572    -5.4896 H       
  53 H53            0.4801    -1.7310    -1.9831 H       
  54 H54           -0.9147    -3.6189    -2.5725 H       
  55 H55           -4.4391    -5.4897    -2.5516 H       
  56 H56           -2.8420    -4.9909    -3.1586 H       
  57 H57           -2.8941    -6.4477    -0.4712 H       
  58 H58           -2.8810    -8.6721    -1.6903 H       
  59 H59           -3.2207    -7.8024    -3.2807 H       
  60 H60           -1.0680    -6.4862    -3.0208 H       
  61 H61           -0.7283    -7.3560    -1.4303 H       
@<TRIPOS>BOND
   1    1    2 1
   2    1    4 1
   3    1   36 1
   4    1   37 1
   5    2    3 1
   6    2   21 1
   7    3    4 1
   8    3   38 1
   9    3   39 1
  10    4    5 1
  11    4    9 1
  12    5    6 1
  13    5   40 1
  14    5   41 1
  15    6    7 1
  16    6   10 1
  17    7    8 1
  18    7   42 1
  19    7   43 1
  20    8    9 1
  21    8   44 1
  22    8   45 1
  23    9   46 1
  24    9   47 1
  25   10   11 1
  26   10   48 1
  27   10   49 1
  28   11   12 ar
  29   11   16 ar
  30   12   13 ar
  31   12   18 1
  32   13   14 ar
  33   13   50 1
  34   14   15 ar
  35   14   17 1
  36   15   16 ar
  37   15   51 1
  38   16   52 1
  39   19   20 1
  40   19   24 1
  41   19   26 2
  42   20   21 2
  43   20   28 1
  44   21   22 1
  45   22   23 2
  46   22   53 1
  47   23   24 1
  48   23   54 1
  49   24   27 1
  50   25   26 1
  51   25   27 2
  52   27   32 1
  53   28   29 1
  54   28   30 1
  55   28   31 1
  56   32   33 1
  57   32   55 1
  58   32   56 1
  59   33   34 1
  60   33   35 1
  61   33   57 1
  62   34   35 1
  63   34   58 1
  64   34   59 1
  65   35   60 1
  66   35   61 1

#	End of record

