#	Name: ASD01870487
#	Creating user name:	WinNT
#	Creation time:	15. 06. 2019 19:39

#	Modifying user name:	WinNT
#	Modification time:	15. 06. 2019 19:39

#	Program:	/corina/corina34_cracker 3.40 0067  02.08.2006

@<TRIPOS>MOLECULE
ASD01870487
  39   42    0    0    0
SMALL
NO_CHARGES


@<TRIPOS>ATOM
   1 C1            -0.0304     1.3997    -0.2317 C.ar    
   2 C2            -0.0274     0.0162    -0.1040 C.ar    
   3 C3             1.1547    -0.6624     0.1417 C.ar    
   4 C4             2.3484     0.0291     0.2633 C.ar    
   5 C5             2.3599     1.4098     0.1376 C.ar    
   6 C6             1.1569     2.1020    -0.1126 C.ar    
   7 C7             3.4135     2.4425     0.2067 C.2     
   8 N8             2.8481     3.6468     0.0082 N.am    
   9 C9             1.5219     3.5327    -0.1869 C.2     
  10 O10            0.7535     4.4509    -0.3903 O.2     
  11 O11            4.5936     2.2385     0.4096 O.2     
  12 C12            3.5493     4.8625     0.0052 C.ar    
  13 C13            4.0798     5.3549    -1.1794 C.ar    
  14 C14            4.7697     6.5506    -1.1828 C.ar    
  15 C15            4.9330     7.2619    -0.0009 C.ar    
  16 C16            4.4023     6.7702     1.1843 C.ar    
  17 C17            3.7077     5.5759     1.1867 C.ar    
  18 Cl18           3.0387     4.9635     2.6670 Cl      
  19 N19            5.6331     8.4742    -0.0046 N.am    
  20 C20            6.4050     8.8098     1.0480 C.2     
  21 C21            7.2221    10.0357     1.0016 C.2     
  22 O22            6.4273     8.1012     2.0362 O.2     
  23 C23            8.0440    10.4974     1.9833 C.2     
  24 O24            8.5925    11.6363     1.5311 O.3     
  25 C25            8.1186    11.8696     0.2990 C.2     
  26 N26            7.3012    10.9158    -0.0332 N.2     
  27 C27            8.2912     9.8529     3.3230 C.3     
  28 F28           -1.1846    -0.6713    -0.2197 F       
  29 H29           -0.9538     1.9245    -0.4273 H       
  30 H30            1.1454    -1.7379     0.2396 H       
  31 H31            3.2671    -0.5052     0.4556 H       
  32 H32            3.9530     4.8021    -2.0985 H       
  33 H33            5.1828     6.9329    -2.1045 H       
  34 H34            4.5295     7.3229     2.1034 H       
  35 H35            5.5626     9.0726    -0.7647 H       
  36 H36            8.3789    12.7144    -0.3214 H       
  37 H37            9.1309     9.1623     3.2445 H       
  38 H38            8.5214    10.6226     4.0595 H       
  39 H39            7.4001     9.3075     3.6337 H       
@<TRIPOS>BOND
   1    1    2 ar
   2    1    6 ar
   3    1   29 1
   4    2    3 ar
   5    2   28 1
   6    3    4 ar
   7    3   30 1
   8    4    5 ar
   9    4   31 1
  10    5    7 1
  11    5    6 ar
  12    6    9 1
  13    7    8 am
  14    7   11 2
  15    8    9 am
  16    8   12 1
  17    9   10 2
  18   12   13 ar
  19   12   17 ar
  20   13   14 ar
  21   13   32 1
  22   14   15 ar
  23   14   33 1
  24   15   16 ar
  25   15   19 1
  26   16   17 ar
  27   16   34 1
  28   17   18 1
  29   19   20 am
  30   19   35 1
  31   20   21 1
  32   20   22 2
  33   21   23 2
  34   21   26 1
  35   23   24 1
  36   23   27 1
  37   24   25 1
  38   25   26 2
  39   25   36 1
  40   27   37 1
  41   27   38 1
  42   27   39 1

#	End of record

