#	Name: ASD06170352
#	Creating user name:	WinNT
#	Creation time:	15. 06. 2019 21:05

#	Modifying user name:	WinNT
#	Modification time:	15. 06. 2019 21:05

#	Program:	/corina/corina34_cracker 3.40 0067  02.08.2006

@<TRIPOS>MOLECULE
ASD06170352
  71   75    0    0    0
SMALL
NO_CHARGES


@<TRIPOS>ATOM
   1 N1             0.0122     0.9667    -0.1468 N.am    
   2 N2             0.2563    -0.3606     0.2181 N.pl3   
   3 C3             1.5786    -0.6121     0.1762 C.2     
   4 C4             2.2318     0.5399    -0.2158 C.2     
   5 C5             1.1920     1.5604    -0.4223 C.2     
   6 C6             3.6789     0.7124    -0.3920 C.2     
   7 O7             4.4324    -0.2208    -0.1860 O.2     
   8 N8             4.1730     1.9042    -0.7818 N.am    
   9 C9            -0.7736    -1.3335     0.5909 C.3     
  10 C10            5.5567     2.1190    -0.7918 C.ar    
  11 C11            6.4243     1.0485    -0.9622 C.ar    
  12 C12            8.2936     2.5468    -0.8122 C.ar    
  13 C13            7.4257     3.6161    -0.6477 C.ar    
  14 C14            6.0612     3.4036    -0.6370 C.ar    
  15 O15            9.6371     2.7570    -0.8226 O.3     
  16 N16           11.5891     2.4872    -4.4456 N.ar    
  17 C17           12.2938     2.8730    -3.3752 C.ar    
  18 C18           11.6613     2.9786    -2.1125 C.ar    
  19 C19           10.2855     2.6710    -2.0099 C.ar    
  20 C20            9.6208     2.2787    -3.1587 C.ar    
  21 C21           10.3114     2.1993    -4.3611 C.ar    
  22 O22            1.3627     2.7132    -0.7726 O.2     
  23 C23           -1.2450     1.5754    -0.2200 C.ar    
  24 C24           12.4020     3.3823    -0.9920 C.ar    
  25 C25           13.7255     3.6707    -1.1230 C.ar    
  26 C26           14.3599     3.5699    -2.3645 C.ar    
  27 C27           13.6602     3.1769    -3.4829 C.ar    
  28 C28           -2.1736     1.3787     0.7939 C.ar    
  29 C29           -3.4138     1.9816     0.7188 C.ar    
  30 C30           -3.7317     2.7800    -0.3646 C.ar    
  31 C31           -2.8096     2.9775    -1.3760 C.ar    
  32 C32           -1.5653     2.3825    -1.3039 C.ar    
  33 O33           15.6820     3.8640    -2.4686 O.3     
  34 C34           16.3531     4.2667    -1.2731 C.3     
  35 C35           -1.3396    -1.9861    -0.6719 C.3     
  36 C36            2.2350    -1.9288     0.5027 C.3     
  37 C37            7.7904     1.2617    -0.9724 C.ar    
  38 C38           -2.4152    -3.0022    -0.2826 C.3     
  39 F39            8.6356     0.2208    -1.1378 F       
  40 O40           -1.9143    -0.9818    -1.5105 O.3     
  41 C41           -0.2147    -2.6979    -1.4261 C.3     
  42 O42           -2.8613    -3.6946    -1.4504 O.3     
  43 H43            3.5701     2.6131    -1.0554 H       
  44 H44           -0.3353    -2.0995     1.2305 H       
  45 H45           -1.5750    -0.8264     1.1282 H       
  46 H46            6.0324     0.0498    -1.0864 H       
  47 H47            7.8173     4.6154    -0.5277 H       
  48 H48            5.3861     4.2368    -0.5085 H       
  49 H49            8.5694     2.0351    -3.1203 H       
  50 H50            9.7823     1.8924    -5.2513 H       
  51 H51           11.9230     3.4643    -0.0275 H       
  52 H52           14.2922     3.9815    -0.2577 H       
  53 H53           14.1598     3.1019    -4.4375 H       
  54 H54           -1.9261     0.7546     1.6399 H       
  55 H55           -4.1364     1.8290     1.5069 H       
  56 H56           -4.7025     3.2500    -0.4211 H       
  57 H57           -3.0612     3.6011    -2.2211 H       
  58 H58           -0.8455     2.5375    -2.0940 H       
  59 H59           16.2880     3.4688    -0.5334 H       
  60 H60           17.4004     4.4713    -1.4956 H       
  61 H61           15.8830     5.1674    -0.8783 H       
  62 H62            2.3077    -2.5327    -0.4018 H       
  63 H63            3.2338    -1.7481     0.9001 H       
  64 H64            1.6385    -2.4578     1.2459 H       
  65 H65           -1.9996    -3.7173     0.4272 H       
  66 H66           -3.2569    -2.4828     0.1755 H       
  67 H67           -2.6357    -0.4890    -1.0962 H       
  68 H68            0.2236    -3.4640    -0.7865 H       
  69 H69           -0.6179    -3.1629    -2.3258 H       
  70 H70            0.5516    -1.9740    -1.7035 H       
  71 H71           -3.5453    -4.3561    -1.2782 H       
@<TRIPOS>BOND
   1    1    2 1
   2    1    5 am
   3    1   23 1
   4    2    3 1
   5    2    9 1
   6    3    4 2
   7    3   36 1
   8    4    5 1
   9    4    6 1
  10    5   22 2
  11    6    7 2
  12    6    8 am
  13    8   10 1
  14    8   43 1
  15    9   35 1
  16    9   44 1
  17    9   45 1
  18   10   11 ar
  19   10   14 ar
  20   11   37 ar
  21   11   46 1
  22   12   13 ar
  23   12   15 1
  24   12   37 ar
  25   13   14 ar
  26   13   47 1
  27   14   48 1
  28   15   19 1
  29   16   17 ar
  30   16   21 ar
  31   17   18 ar
  32   17   27 ar
  33   18   19 ar
  34   18   24 ar
  35   19   20 ar
  36   20   21 ar
  37   20   49 1
  38   21   50 1
  39   23   28 ar
  40   23   32 ar
  41   24   25 ar
  42   24   51 1
  43   25   26 ar
  44   25   52 1
  45   26   27 ar
  46   26   33 1
  47   27   53 1
  48   28   29 ar
  49   28   54 1
  50   29   30 ar
  51   29   55 1
  52   30   31 ar
  53   30   56 1
  54   31   32 ar
  55   31   57 1
  56   32   58 1
  57   33   34 1
  58   34   59 1
  59   34   60 1
  60   34   61 1
  61   35   38 1
  62   35   40 1
  63   35   41 1
  64   36   62 1
  65   36   63 1
  66   36   64 1
  67   37   39 1
  68   38   42 1
  69   38   65 1
  70   38   66 1
  71   40   67 1
  72   41   68 1
  73   41   69 1
  74   41   70 1
  75   42   71 1

#	End of record

