#	Name: ASD01918023
#	Creating user name:	WinNT
#	Creation time:	15. 06. 2019 20:10

#	Modifying user name:	WinNT
#	Modification time:	15. 06. 2019 20:10

#	Program:	/corina/corina34_cracker 3.40 0067  02.08.2006

@<TRIPOS>MOLECULE
ASD01918023
  40   43    0    0    0
SMALL
NO_CHARGES


@<TRIPOS>ATOM
   1 N1             4.8181    -0.4140    -2.1423 N.ar    
   2 C2             5.2855     0.2846    -3.1582 C.ar    
   3 C3             5.1745     1.6625    -3.1831 C.ar    
   4 C4             4.5627     2.3110    -2.1229 C.ar    
   5 C5             4.0807     1.5429    -1.0671 C.ar    
   6 C6             4.2294     0.1644    -1.1142 C.ar    
   7 O7             3.4736     2.1348    -0.0052 O.3     
   8 C8             3.4560     3.4939     0.0444 C.2     
   9 N9             2.2077     5.5082    -0.0212 N.pl3   
  10 C10            2.2740     4.1523    -0.0651 C.2     
  11 C11            4.6566     4.1940     0.2133 C.2     
  12 C12            4.6304     5.5834     0.2634 C.2     
  13 C13            3.3387     6.2579     0.1364 C.2     
  14 C14            5.8714     6.3560     0.4404 C.2     
  15 N15            5.8263     7.7022     0.4866 N.am    
  16 C16            6.9831     8.4289     0.7593 C.ar    
  17 O17            6.9371     5.7793     0.5448 O.2     
  18 N18            1.1461     6.4206    -0.1078 N.2     
  19 C19            1.6622     7.6227    -0.0097 C.2     
  20 N20            2.9772     7.5312     0.1424 N.2     
  21 N21            8.1435     7.7993     0.8647 N.ar    
  22 C22            6.9092     9.8080     0.9124 C.ar    
  23 C23            8.0657    10.5197     1.1832 C.ar    
  24 C24            9.2609     9.8247     1.2920 C.ar    
  25 C25            9.2633     8.4506     1.1222 C.ar    
  26 C26            5.7132     2.4497    -4.3498 C.3     
  27 F27           10.4248     7.7678     1.2213 F       
  28 H28            5.7619    -0.2265    -3.9818 H       
  29 H29            4.4625     3.3863    -2.1156 H       
  30 H30            3.8590    -0.4412    -0.3003 H       
  31 H31            1.3641     3.5841    -0.1904 H       
  32 H32            5.5917     3.6614     0.3039 H       
  33 H33            4.9884     8.1651     0.3300 H       
  34 H34            1.1017     8.5454    -0.0407 H       
  35 H35            5.9618    10.3184     0.8209 H       
  36 H36            8.0376    11.5922     1.3066 H       
  37 H37           10.1806    10.3503     1.5021 H       
  38 H38            4.9352     2.5577    -5.1055 H       
  39 H39            6.0277     3.4359    -4.0084 H       
  40 H40            6.5665     1.9248    -4.7793 H       
@<TRIPOS>BOND
   1    1    2 ar
   2    1    6 ar
   3    2    3 ar
   4    2   28 1
   5    3    4 ar
   6    3   26 1
   7    4    5 ar
   8    4   29 1
   9    5    6 ar
  10    5    7 1
  11    6   30 1
  12    7    8 1
  13    8   11 1
  14    8   10 2
  15    9   10 1
  16    9   18 1
  17    9   13 1
  18   10   31 1
  19   11   12 2
  20   11   32 1
  21   12   13 1
  22   12   14 1
  23   13   20 2
  24   14   15 am
  25   14   17 2
  26   15   16 1
  27   15   33 1
  28   16   22 ar
  29   16   21 ar
  30   18   19 2
  31   19   20 1
  32   19   34 1
  33   21   25 ar
  34   22   23 ar
  35   22   35 1
  36   23   24 ar
  37   23   36 1
  38   24   25 ar
  39   24   37 1
  40   25   27 1
  41   26   38 1
  42   26   39 1
  43   26   40 1

#	End of record

