#	Name: ASD01917546
#	Creating user name:	WinNT
#	Creation time:	15. 06. 2019 20:09

#	Modifying user name:	WinNT
#	Modification time:	15. 06. 2019 20:09

#	Program:	/corina/corina34_cracker 3.40 0067  02.08.2006

@<TRIPOS>MOLECULE
ASD01917546
  39   41    0    0    0
SMALL
NO_CHARGES


@<TRIPOS>ATOM
   1 C1            -0.0094     1.3770    -0.0543 C.ar    
   2 C2             0.0102    -0.0043    -0.0736 C.ar    
   3 C3             1.2184    -0.6819    -0.1151 C.ar    
   4 C4             2.4115     0.0186    -0.1374 C.ar    
   5 C5             2.4065     1.3974    -0.1185 C.ar    
   6 C6             1.1924     2.0891    -0.0771 C.ar    
   7 C7             1.1806     3.5209    -0.0578 C.1     
   8 C8             1.1709     4.6948    -0.0419 C.1     
   9 C9             1.1591     6.1266    -0.0226 C.ar    
  10 N10           -0.0171     8.1547     0.0421 N.ar    
  11 C11           -0.0504     6.8366     0.0253 C.ar    
  12 C12            2.3570     6.8574    -0.0451 C.ar    
  13 N13            2.3020     8.1747    -0.0256 N.ar    
  14 C14            1.1371     8.8079     0.0145 C.ar    
  15 C15            1.1248    10.2900     0.0346 C.2     
  16 C16            0.4363    12.4161     0.0117 C.3     
  17 N17            0.0434    10.9990    -0.0385 N.2     
  18 N18            2.2607    11.0596     0.1386 N.am    
  19 C19            1.9469    12.3724     0.1315 C.2     
  20 C20            0.0168    13.1352    -1.2720 C.3     
  21 C21           -0.1759    13.0997     1.2360 C.3     
  22 O22            2.7084    13.3131     0.2047 O.2     
  23 C23            3.6218    10.5279     0.2432 C.3     
  24 F24           -1.1503    -0.6956    -0.0516 F       
  25 H25           -0.9512     1.9049    -0.0261 H       
  26 H26            1.2288    -1.7618    -0.1297 H       
  27 H27            3.3493    -0.5161    -0.1694 H       
  28 H28            3.3390     1.9420    -0.1352 H       
  29 H29           -0.9939     6.3116     0.0476 H       
  30 H30            3.3091     6.3487    -0.0774 H       
  31 H31           -1.0677    13.0943    -1.3735 H       
  32 H32            0.3385    14.1756    -1.2274 H       
  33 H33            0.4806    12.6479    -2.1296 H       
  34 H34            0.1526    12.5875     2.1403 H       
  35 H35            0.1466    14.1403     1.2703 H       
  36 H36           -1.2631    13.0583     1.1695 H       
  37 H37            3.5824     9.4416     0.3236 H       
  38 H38            4.1897    10.8061    -0.6446 H       
  39 H39            4.1060    10.9404     1.1283 H       
@<TRIPOS>BOND
   1    1    2 ar
   2    1    6 ar
   3    1   25 1
   4    2    3 ar
   5    2   24 1
   6    3    4 ar
   7    3   26 1
   8    4    5 ar
   9    4   27 1
  10    5    6 ar
  11    5   28 1
  12    6    7 1
  13    7    8 3
  14    8    9 1
  15    9   12 ar
  16    9   11 ar
  17   10   11 ar
  18   10   14 ar
  19   11   29 1
  20   12   13 ar
  21   12   30 1
  22   13   14 ar
  23   14   15 1
  24   15   18 1
  25   15   17 2
  26   16   17 1
  27   16   19 1
  28   16   20 1
  29   16   21 1
  30   18   19 am
  31   18   23 1
  32   19   22 2
  33   20   31 1
  34   20   32 1
  35   20   33 1
  36   21   34 1
  37   21   35 1
  38   21   36 1
  39   23   37 1
  40   23   38 1
  41   23   39 1

#	End of record

