#	Name: ASD00170209
#	Creating user name:	WinNT
#	Creation time:	15. 06. 2019 18:31

#	Modifying user name:	WinNT
#	Modification time:	15. 06. 2019 18:31

#	Program:	/corina/corina34_cracker 3.40 0067  02.08.2006

@<TRIPOS>MOLECULE
ASD00170209
  46   49    0    0    0
SMALL
NO_CHARGES


@<TRIPOS>ATOM
   1 C1             0.0018     1.3503    -0.0669 C.2     
   2 C2             0.0223     0.0152     0.2013 C.2     
   3 C3            -1.3113    -0.5539     0.2772 C.2     
   4 C4            -2.3018     0.3748     0.0626 C.2     
   5 S5            -1.6494     1.9220    -0.2211 S.3     
   6 C6             1.2636    -0.7673     0.3933 C.ar    
   7 C7             2.0753    -0.5321     1.5035 C.ar    
   8 C8             3.2315    -1.2651     1.6767 C.ar    
   9 C9             3.5867    -2.2310     0.7523 C.ar    
  10 C10            2.7860    -2.4690    -0.3509 C.ar    
  11 C11            1.6244    -1.7474    -0.5324 C.ar    
  12 N12           -3.6501     0.0912     0.0809 N.pl3   
  13 C13           -1.5729    -1.9654     0.5520 C.2     
  14 C14           -1.6327    -2.4484     1.9490 C.ar    
  15 O15           -1.7416    -2.7439    -0.3692 O.2     
  16 C16           -1.7709    -3.8117     2.2140 C.ar    
  17 C17           -1.8261    -4.2555     3.5190 C.ar    
  18 C18           -1.7452    -3.3523     4.5641 C.ar    
  19 C19           -1.6081    -1.9994     4.3082 C.ar    
  20 C20           -1.5454    -1.5432     3.0078 C.ar    
  21 C21            1.2013     2.1988    -0.2027 C.ar    
  22 C22            2.2672     1.7837    -1.0049 C.ar    
  23 C23            3.3854     2.5815    -1.1274 C.ar    
  24 C24            3.4531     3.7917    -0.4575 C.ar    
  25 C25            2.4001     4.2089     0.3396 C.ar    
  26 C26            1.2736     3.4235     0.4658 C.ar    
  27 Cl27           4.8643     4.7900    -0.6172 Cl      
  28 C28            4.1095    -1.0124     2.8752 C.3     
  29 F29            3.7062    -1.8372     3.9309 F       
  30 F30            5.4399    -1.2932     2.5462 F       
  31 F31            3.9973     0.3276     3.2613 F       
  32 H32            1.7995     0.2222     2.2255 H       
  33 H33            4.4930    -2.8015     0.8920 H       
  34 H34            3.0689    -3.2242    -1.0693 H       
  35 H35            1.0003    -1.9341    -1.3938 H       
  36 H36           -3.9558    -0.7962     0.3256 H       
  37 H37           -4.2935     0.7790    -0.1511 H       
  38 H38           -1.8349    -4.5176     1.3991 H       
  39 H39           -1.9330    -5.3102     3.7254 H       
  40 H40           -1.7896    -3.7048     5.5840 H       
  41 H41           -1.5456    -1.2996     5.1284 H       
  42 H42           -1.4384    -0.4870     2.8094 H       
  43 H43            2.2158     0.8400    -1.5275 H       
  44 H44            4.2102     2.2616    -1.7469 H       
  45 H45            2.4595     5.1534     0.8599 H       
  46 H46            0.4532     3.7499     1.0876 H       
@<TRIPOS>BOND
   1    1    2 2
   2    1   21 1
   3    1    5 1
   4    2    3 1
   5    2    6 1
   6    3    4 2
   7    3   13 1
   8    4    5 1
   9    4   12 1
  10    6    7 ar
  11    6   11 ar
  12    7    8 ar
  13    7   32 1
  14    8    9 ar
  15    8   28 1
  16    9   10 ar
  17    9   33 1
  18   10   11 ar
  19   10   34 1
  20   11   35 1
  21   12   36 1
  22   12   37 1
  23   13   14 1
  24   13   15 2
  25   14   16 ar
  26   14   20 ar
  27   16   17 ar
  28   16   38 1
  29   17   18 ar
  30   17   39 1
  31   18   19 ar
  32   18   40 1
  33   19   20 ar
  34   19   41 1
  35   20   42 1
  36   21   22 ar
  37   21   26 ar
  38   22   23 ar
  39   22   43 1
  40   23   24 ar
  41   23   44 1
  42   24   25 ar
  43   24   27 1
  44   25   26 ar
  45   25   45 1
  46   26   46 1
  47   28   29 1
  48   28   30 1
  49   28   31 1

#	End of record

