#	Name: ASD01816749
#	Creating user name:	WinNT
#	Creation time:	15. 06. 2019 19:35

#	Modifying user name:	WinNT
#	Modification time:	15. 06. 2019 19:35

#	Program:	/corina/corina34_cracker 3.40 0067  02.08.2006

@<TRIPOS>MOLECULE
ASD01816749
  57   60    0    0    0
SMALL
NO_CHARGES


@<TRIPOS>ATOM
   1 C1            -0.0167     1.3960     0.0136 C.2     
   2 C2             0.0025    -0.0052    -0.0037 C.2     
   3 C3             1.1989    -0.6602    -0.0251 C.2     
   4 C4             2.3922     0.0815    -0.0294 C.2     
   5 N5             2.3439     1.4491    -0.0118 N.am    
   6 C6             1.1420     2.0927     0.0091 C.2     
   7 C7             3.6230    -0.5886    -0.0513 C.2     
   8 C8             4.7879     0.1231    -0.0557 C.2     
   9 C9             4.7340     1.5284    -0.0381 C.2     
  10 C10            3.4813     2.1731    -0.0159 C.2     
  11 C11            3.6605    -2.0951    -0.0695 C.3     
  12 O12            3.4256     3.3913    -0.0006 O.2     
  13 C13            5.9710     2.3159    -0.0418 C.2     
  14 N14            7.1647     1.6963     0.0459 N.am    
  15 O15            5.9198     3.5292    -0.1240 O.2     
  16 N16            3.7776    -2.5653    -1.4562 N.3     
  17 C17            4.0546    -4.0078    -1.5016 C.3     
  18 C18            4.0903    -4.4721    -2.9595 C.3     
  19 N19            5.1211    -3.7177    -3.6861 N.3     
  20 C20            4.8441    -2.2752    -3.6407 C.3     
  21 C21            4.8084    -1.8109    -2.1828 C.3     
  22 C22            5.2321    -4.1632    -5.0001 C.ar    
  23 C23            6.1568    -3.5740    -5.8572 C.ar    
  24 C24            6.2692    -4.0122    -7.1573 C.ar    
  25 C25            5.4535    -5.0506    -7.6162 C.ar    
  26 C26            4.5259    -5.6406    -6.7524 C.ar    
  27 C27            4.4221    -5.2008    -5.4521 C.ar    
  28 C28            8.4025     2.4710    -0.0711 C.3     
  29 C29            9.6050     1.5345     0.0631 C.3     
  30 O30            9.6240     0.6231    -1.0374 O.3     
  31 C31            5.5673    -5.5087    -8.9682 C.1     
  32 N32            5.6577    -5.8721   -10.0407 N.1     
  33 H33           -0.9603     1.9212     0.0261 H       
  34 H34           -0.9228    -0.5622     0.0002 H       
  35 H35            1.2286    -1.7397    -0.0383 H       
  36 H36            1.1153     3.1723     0.0228 H       
  37 H37            5.7397    -0.3869    -0.0721 H       
  38 H38            4.5177    -2.4442     0.5062 H       
  39 H39            2.7434    -2.4867     0.3707 H       
  40 H40            7.2041     0.7373     0.1865 H       
  41 H41            5.0179    -4.2080    -1.0325 H       
  42 H42            3.2711    -4.5455    -0.9677 H       
  43 H43            4.3242    -5.5360    -2.9967 H       
  44 H44            3.1184    -4.2968    -3.4209 H       
  45 H45            5.6276    -1.7375    -4.1746 H       
  46 H46            3.8808    -2.0750    -4.1098 H       
  47 H47            4.5745    -0.7469    -2.1456 H       
  48 H48            5.7803    -1.9862    -1.7215 H       
  49 H49            6.7867    -2.7718    -5.5020 H       
  50 H50            6.9866    -3.5540    -7.8221 H       
  51 H51            3.8940    -6.4428    -7.1038 H       
  52 H52            3.7061    -5.6563    -4.7842 H       
  53 H53            8.4324     2.9636    -1.0430 H       
  54 H54            8.4371     3.2220     0.7181 H       
  55 H55           10.5238     2.1209     0.0651 H       
  56 H56            9.5283     0.9761     0.9960 H       
  57 H57           10.3614    -0.0021    -1.0176 H       
@<TRIPOS>BOND
   1    1    2 1
   2    1    6 2
   3    1   33 1
   4    2    3 2
   5    2   34 1
   6    3    4 1
   7    3   35 1
   8    4    5 1
   9    4    7 2
  10    5    6 1
  11    5   10 am
  12    6   36 1
  13    7    8 1
  14    7   11 1
  15    8    9 2
  16    8   37 1
  17    9   10 1
  18    9   13 1
  19   10   12 2
  20   11   16 1
  21   11   38 1
  22   11   39 1
  23   13   15 2
  24   13   14 am
  25   14   28 1
  26   14   40 1
  27   16   17 1
  28   16   21 1
  29   17   18 1
  30   17   41 1
  31   17   42 1
  32   18   19 1
  33   18   43 1
  34   18   44 1
  35   19   20 1
  36   19   22 1
  37   20   21 1
  38   20   45 1
  39   20   46 1
  40   21   47 1
  41   21   48 1
  42   22   23 ar
  43   22   27 ar
  44   23   24 ar
  45   23   49 1
  46   24   25 ar
  47   24   50 1
  48   25   26 ar
  49   25   31 1
  50   26   27 ar
  51   26   51 1
  52   27   52 1
  53   28   29 1
  54   28   53 1
  55   28   54 1
  56   29   30 1
  57   29   55 1
  58   29   56 1
  59   30   57 1
  60   31   32 3

#	End of record

