#	Name: ASD02198535
#	Creating user name:	WinNT
#	Creation time:	15. 06. 2019 20:19

#	Modifying user name:	WinNT
#	Modification time:	15. 06. 2019 20:19

#	Program:	/corina/corina34_cracker 3.40 0067  02.08.2006

@<TRIPOS>MOLECULE
ASD02198535
  41   44    0    0    0
SMALL
NO_CHARGES


@<TRIPOS>ATOM
   1 C1            -0.0158     1.3529    -0.0404 C.2     
   2 C2             0.0026    -0.0039    -0.0455 C.2     
   3 N3             1.1721    -0.6814    -0.0123 N.pl3   
   4 N4             2.3176    -0.1074     0.0249 N.2     
   5 C5             2.4431     1.2023     0.0337 C.2     
   6 C6             1.2262     2.0304     0.0001 C.2     
   7 C7             1.1299    -2.0795    -0.0185 C.ar    
   8 C8            -0.1253    -4.1201     0.0888 C.ar    
   9 C9             1.0465    -4.8453    -0.0298 C.ar    
  10 C10            2.2601    -4.1913    -0.1375 C.ar    
  11 C11            2.3053    -2.8109    -0.1322 C.ar    
  12 C12            3.7788     1.8296     0.0774 C.2     
  13 N13            4.5490     2.1795    -0.9986 N.pl3   
  14 N14            5.7350     2.7413    -0.5098 N.2     
  15 C15            5.6960     2.7370     0.7990 C.2     
  16 C16            4.4836     2.1791     1.2100 C.2     
  17 C17            4.2115     2.0067    -2.3469 C.ar    
  18 C18            3.4727     0.8995    -2.7428 C.ar    
  19 O19            1.2860     3.2509     0.0063 O.2     
  20 C20            4.6100     2.9451    -3.2898 C.ar    
  21 C21            4.2752     2.7720    -4.6185 C.ar    
  22 C22            3.5435     1.6659    -5.0103 C.ar    
  23 C23            3.1410     0.7322    -4.0731 C.ar    
  24 C24           -0.0873    -2.7399     0.0948 C.ar    
  25 F25           -1.2305    -6.2191     0.1698 F       
  26 F26           -2.0587    -4.4917     1.4145 F       
  27 C27           -1.4456    -4.8372     0.2054 C.3     
  28 F28           -2.2733    -4.4664    -0.8598 F       
  29 F29            4.0784     2.0047     2.4870 F       
  30 H30           -0.9477     1.8981    -0.0708 H       
  31 H31           -0.9289    -0.5495    -0.0761 H       
  32 H32            1.0136    -5.9247    -0.0383 H       
  33 H33            3.1732    -4.7605    -0.2299 H       
  34 H34            3.2535    -2.3007    -0.2167 H       
  35 H35            6.4715     3.1080     1.4527 H       
  36 H36            3.1581     0.1699    -2.0114 H       
  37 H37            5.1809     3.8095    -2.9844 H       
  38 H38            4.5848     3.5015    -5.3523 H       
  39 H39            3.2826     1.5330    -6.0498 H       
  40 H40            2.5700    -0.1308    -4.3822 H       
  41 H41           -1.0026    -2.1743     0.1878 H       
@<TRIPOS>BOND
   1    1    2 2
   2    1    6 1
   3    1   30 1
   4    2    3 1
   5    2   31 1
   6    3    4 1
   7    3    7 1
   8    4    5 2
   9    5    6 1
  10    5   12 1
  11    6   19 2
  12    7   24 ar
  13    7   11 ar
  14    8    9 ar
  15    8   27 1
  16    8   24 ar
  17    9   10 ar
  18    9   32 1
  19   10   11 ar
  20   10   33 1
  21   11   34 1
  22   12   13 1
  23   12   16 2
  24   13   14 1
  25   13   17 1
  26   14   15 2
  27   15   16 1
  28   15   35 1
  29   16   29 1
  30   17   20 ar
  31   17   18 ar
  32   18   23 ar
  33   18   36 1
  34   20   21 ar
  35   20   37 1
  36   21   22 ar
  37   21   38 1
  38   22   23 ar
  39   22   39 1
  40   23   40 1
  41   24   41 1
  42   25   27 1
  43   26   27 1
  44   27   28 1

#	End of record

