#	Name: ASD02670003
#	Creating user name:	WinNT
#	Creation time:	15. 06. 2019 20:26

#	Modifying user name:	WinNT
#	Modification time:	15. 06. 2019 20:26

#	Program:	/corina/corina34_cracker 3.40 0067  02.08.2006

@<TRIPOS>MOLECULE
ASD02670003
  44   44    0    0    0
SMALL
NO_CHARGES


@<TRIPOS>ATOM
   1 C1            -0.4099     1.2386     0.1443 C.2     
   2 C2             0.0103    -0.2086     0.1346 C.3     
   3 C3            -0.3844    -0.8631     1.4600 C.3     
   4 O4             0.4186     2.1091     0.0190 O.2     
   5 O5            -1.7053     1.5604     0.2865 O.3     
   6 C6            -0.6849    -0.9338    -1.0194 C.3     
   7 O7             1.4268    -0.2922    -0.0347 O.3     
   8 C8             2.1980     0.2887     0.9220 C.ar    
   9 C9             3.5769     0.1412     0.8868 C.ar    
  10 C10            4.3590     0.7327     1.8598 C.ar    
  11 C11            3.7679     1.4720     2.8690 C.ar    
  12 C12            2.3927     1.6204     2.9058 C.ar    
  13 C13            1.6076     1.0347     1.9316 C.ar    
  14 Cl14           4.7529     2.2140     4.0909 Cl      
  15 C15           -2.0371     2.9740     0.2868 C.3     
  16 C16           -3.5481     3.1430     0.4583 C.3     
  17 C17           -3.8978     4.6325     0.4587 C.3     
  18 C18           -5.3860     4.7991     0.6276 C.2     
  19 O19           -6.0969     3.8226     0.7369 O.2     
  20 N20           -5.9270     6.0332     0.6571 N.am    
  21 C21           -7.3737     6.1950     0.8213 C.3     
  22 C22           -5.0682     7.2127     0.5250 C.3     
  23 H23           -1.4239    -0.6263     1.6868 H       
  24 H24           -0.2669    -1.9439     1.3806 H       
  25 H25            0.2565    -0.4855     2.2567 H       
  26 H26           -0.4741    -0.4147    -1.9543 H       
  27 H27           -0.3151    -1.9573    -1.0806 H       
  28 H28           -1.7608    -0.9460    -0.8452 H       
  29 H29            4.0386    -0.4361     0.0994 H       
  30 H30            5.4325     0.6177     1.8329 H       
  31 H31            1.9331     2.1978     3.6943 H       
  32 H32            0.5345     1.1541     1.9584 H       
  33 H33           -1.5205     3.4683     1.1095 H       
  34 H34           -1.7265     3.4203    -0.6578 H       
  35 H35           -4.0647     2.6487    -0.3644 H       
  36 H36           -3.8587     2.6967     1.4030 H       
  37 H37           -3.3812     5.1269     1.2814 H       
  38 H38           -3.5872     5.0789    -0.4860 H       
  39 H39           -7.6136     6.2629     1.8825 H       
  40 H40           -7.6970     7.1056     0.3168 H       
  41 H41           -7.8869     5.3371     0.3869 H       
  42 H42           -4.0312     6.8964     0.4128 H       
  43 H43           -5.3702     7.7857    -0.3516 H       
  44 H44           -5.1643     7.8336     1.4157 H       
@<TRIPOS>BOND
   1    1    2 1
   2    1    4 2
   3    1    5 1
   4    2    3 1
   5    2    6 1
   6    2    7 1
   7    3   23 1
   8    3   24 1
   9    3   25 1
  10    5   15 1
  11    6   26 1
  12    6   27 1
  13    6   28 1
  14    7    8 1
  15    8    9 ar
  16    8   13 ar
  17    9   10 ar
  18    9   29 1
  19   10   11 ar
  20   10   30 1
  21   11   12 ar
  22   11   14 1
  23   12   13 ar
  24   12   31 1
  25   13   32 1
  26   15   16 1
  27   15   33 1
  28   15   34 1
  29   16   17 1
  30   16   35 1
  31   16   36 1
  32   17   18 1
  33   17   37 1
  34   17   38 1
  35   18   19 2
  36   18   20 am
  37   20   21 1
  38   20   22 1
  39   21   39 1
  40   21   40 1
  41   21   41 1
  42   22   42 1
  43   22   43 1
  44   22   44 1

#	End of record

