#	Name: ASD01000114
#	Creating user name:	WinNT
#	Creation time:	15. 06. 2019 18:54

#	Modifying user name:	WinNT
#	Modification time:	15. 06. 2019 18:54

#	Program:	/corina/corina34_cracker 3.40 0067  02.08.2006

@<TRIPOS>MOLECULE
ASD01000114
  32   34    0    0    0
SMALL
NO_CHARGES


@<TRIPOS>ATOM
   1 C1            -0.0167     1.3796     0.0096 C.ar    
   2 C2             0.0021    -0.0041     0.0020 C.ar    
   3 C3             1.2037    -0.6807    -0.0131 C.ar    
   4 C4             2.4043     0.0345    -0.0208 C.ar    
   5 C5             2.3774     1.4316    -0.0130 C.ar    
   6 C6             1.1681     2.0945     0.0022 C.ar    
   7 C7             4.8443     0.0093    -0.0438 C.2     
   8 C8             3.6925    -0.6813    -0.0365 C.2     
   9 C9             6.1320    -0.7062    -0.0595 C.ar    
  10 C10            6.1493    -2.1136    -0.0668 C.ar    
  11 C11            7.3231    -2.7946    -0.0812 C.ar    
  12 C12            8.5436    -2.0947    -0.0896 C.ar    
  13 C13            8.5403    -0.6763    -0.0829 C.ar    
  14 C14            7.3185     0.0118    -0.0729 C.ar    
  15 C15            9.7705    -2.7787    -0.1040 C.ar    
  16 C16           10.9358    -2.0747    -0.1114 C.ar    
  17 C17           10.9330    -0.6811    -0.1050 C.ar    
  18 C18            9.7646     0.0165    -0.0910 C.ar    
  19 H19           -0.9607     1.9041     0.0169 H       
  20 H20           -0.9266    -0.5554     0.0083 H       
  21 H21            1.2169    -1.7606    -0.0187 H       
  22 H22            3.3013     1.9909    -0.0185 H       
  23 H23            1.1458     3.1743     0.0082 H       
  24 H24            4.8265     1.0891    -0.0382 H       
  25 H25            3.7102    -1.7611    -0.0421 H       
  26 H26            5.2168    -2.6584    -0.0605 H       
  27 H27            7.3204    -3.8746    -0.0859 H       
  28 H28            7.3017     1.0917    -0.0677 H       
  29 H29            9.7893    -3.8585    -0.1088 H       
  30 H30           11.8769    -2.6044    -0.1221 H       
  31 H31           11.8716    -0.1470    -0.1108 H       
  32 H32            9.7772     1.0964    -0.0861 H       
@<TRIPOS>BOND
   1    1    2 ar
   2    1    6 ar
   3    1   19 1
   4    2    3 ar
   5    2   20 1
   6    3    4 ar
   7    3   21 1
   8    4    5 ar
   9    4    8 1
  10    5    6 ar
  11    5   22 1
  12    6   23 1
  13    7    8 2
  14    7    9 1
  15    7   24 1
  16    8   25 1
  17    9   10 ar
  18    9   14 ar
  19   10   11 ar
  20   10   26 1
  21   11   12 ar
  22   11   27 1
  23   12   13 ar
  24   12   15 ar
  25   13   14 ar
  26   13   18 ar
  27   14   28 1
  28   15   16 ar
  29   15   29 1
  30   16   17 ar
  31   16   30 1
  32   17   18 ar
  33   17   31 1
  34   18   32 1

#	End of record

