#	Name: ASD01915458
#	Creating user name:	WinNT
#	Creation time:	15. 06. 2019 20:05

#	Modifying user name:	WinNT
#	Modification time:	15. 06. 2019 20:05

#	Program:	/corina/corina34_cracker 3.40 0067  02.08.2006

@<TRIPOS>MOLECULE
ASD01915458
  39   40    0    0    0
SMALL
NO_CHARGES


@<TRIPOS>ATOM
   1 C1             0.2280     1.3821     0.9181 C.ar    
   2 C2             0.1830     0.0133     0.7357 C.ar    
   3 C3             1.3629    -0.6754     0.4525 C.ar    
   4 N4             2.5223    -0.0328     0.3573 N.ar    
   5 C5             2.6089     1.2659     0.5233 C.ar    
   6 C6             1.4676     2.0277     0.8101 C.ar    
   7 C7             1.3228    -2.1409     0.2560 C.2     
   8 O8             0.2901    -2.7521     0.4497 O.2     
   9 N9             2.4313    -2.7986    -0.1379 N.am    
  10 C10            2.4252    -4.2613    -0.2193 C.3     
  11 C11            3.6424    -2.0507    -0.4847 C.3     
  12 C12            4.4624    -1.7927     0.7810 C.3     
  13 C13            1.9950    -4.6922    -1.6229 C.3     
  14 C14            1.5666     3.4449     0.9901 C.1     
  15 C15            1.6478     4.6068     1.1376 C.1     
  16 C16            1.7468     6.0240     1.3176 C.ar    
  17 C17            0.7072     8.1408     1.7817 C.ar    
  18 C18            0.6054     6.7760     1.6090 C.ar    
  19 C19            2.9862     6.6606     1.2084 C.ar    
  20 C20            3.0735     8.0278     1.3838 C.ar    
  21 C21            1.9354     8.7668     1.6674 C.ar    
  22 F22            4.2703     8.6459     1.2792 F       
  23 H23           -0.6703     1.9414     1.1341 H       
  24 H24           -0.7545    -0.5174     0.8119 H       
  25 H25            3.5691     1.7528     0.4386 H       
  26 H26            3.4261    -4.6408    -0.0135 H       
  27 H27            1.7263    -4.6631     0.5143 H       
  28 H28            4.2372    -2.6297    -1.1912 H       
  29 H29            3.3645    -1.0991    -0.9379 H       
  30 H30            3.8676    -1.2137     1.4875 H       
  31 H31            4.7403    -2.7443     1.2342 H       
  32 H32            5.3635    -1.2362     0.5230 H       
  33 H33            1.9905    -5.7805    -1.6835 H       
  34 H34            0.9942    -4.3127    -1.8287 H       
  35 H35            2.6939    -4.2904    -2.3565 H       
  36 H36           -0.1746     8.7223     2.0066 H       
  37 H37           -0.3547     6.2896     1.6984 H       
  38 H38            3.8730     6.0851     0.9878 H       
  39 H39            2.0087     9.8356     1.8037 H       
@<TRIPOS>BOND
   1    1    2 ar
   2    1    6 ar
   3    1   23 1
   4    2    3 ar
   5    2   24 1
   6    3    4 ar
   7    3    7 1
   8    4    5 ar
   9    5    6 ar
  10    5   25 1
  11    6   14 1
  12    7    8 2
  13    7    9 am
  14    9   10 1
  15    9   11 1
  16   10   13 1
  17   10   26 1
  18   10   27 1
  19   11   12 1
  20   11   28 1
  21   11   29 1
  22   12   30 1
  23   12   31 1
  24   12   32 1
  25   13   33 1
  26   13   34 1
  27   13   35 1
  28   14   15 3
  29   15   16 1
  30   16   19 ar
  31   16   18 ar
  32   17   18 ar
  33   17   21 ar
  34   17   36 1
  35   18   37 1
  36   19   20 ar
  37   19   38 1
  38   20   21 ar
  39   20   22 1
  40   21   39 1

#	End of record

