#	Name: ASD01900490
#	Creating user name:	WinNT
#	Creation time:	15. 06. 2019 19:52

#	Modifying user name:	WinNT
#	Modification time:	15. 06. 2019 19:52

#	Program:	/corina/corina34_cracker 3.40 0067  02.08.2006

@<TRIPOS>MOLECULE
ASD01900490
  40   43    0    0    0
SMALL
NO_CHARGES


@<TRIPOS>ATOM
   1 C1            -0.2699     1.6895     0.2653 C.ar    
   2 C2            -0.0053     0.3327     0.1194 C.ar    
   3 C3             1.2921    -0.1316     0.2148 C.ar    
   4 C4             2.3318     0.7576     0.4566 C.ar    
   5 C5             2.0666     2.1130     0.6023 C.ar    
   6 C6             0.7694     2.5773     0.5068 C.ar    
   7 N7            -1.5853     2.1617     0.1628 N.pl3   
   8 N8             3.6461     0.2874     0.5538 N.pl3   
   9 C9             6.1262     0.7239     0.1360 C.ar    
  10 C10            6.8247     1.8529    -0.3329 C.ar    
  11 C11            8.2114     1.7851    -0.4631 C.ar    
  12 C12            8.8426     0.6046    -0.1238 C.ar    
  13 C13            8.0902    -0.4700     0.3323 C.ar    
  14 N14            6.7843    -0.3897     0.4492 N.ar    
  15 N15            4.6230     2.3380    -0.2571 N.2     
  16 N16            5.8945     2.8305    -0.5688 N.pl3   
  17 C17            4.7110     1.1014     0.1557 C.2     
  18 C18           -1.8315     3.4136    -0.3753 C.ar    
  19 N19           -3.0670     3.8924    -0.3591 N.ar    
  20 C20           -3.3355     5.0888    -0.8670 C.ar    
  21 C21           -2.2978     5.8386    -1.4198 C.ar    
  22 C22           -1.0235     5.3037    -1.4173 C.ar    
  23 N23           -0.8252     4.1054    -0.8889 N.ar    
  24 O24           -4.6003     5.5748    -0.8489 O.3     
  25 C25           -5.6061     4.7444    -0.2650 C.3     
  26 Cl26          -1.3050    -0.7779    -0.1822 Cl      
  27 H27            1.4981    -1.1858     0.1019 H       
  28 H28            2.8749     2.8041     0.7906 H       
  29 H29            0.5636     3.6315     0.6198 H       
  30 H30           -2.3234     1.6117     0.4688 H       
  31 H31            3.8185    -0.6032     0.8974 H       
  32 H32            8.7767     2.6332    -0.8203 H       
  33 H33            9.9154     0.5175    -0.2128 H       
  34 H34            8.5892    -1.3907     0.5962 H       
  35 H35            6.0869     3.7220    -0.8990 H       
  36 H36           -2.4858     6.8152    -1.8409 H       
  37 H37           -0.1977     5.8583    -1.8380 H       
  38 H38           -6.5698     5.2511    -0.3151 H       
  39 H39           -5.6619     3.8027    -0.8112 H       
  40 H40           -5.3537     4.5459     0.7766 H       
@<TRIPOS>BOND
   1    1    2 ar
   2    1    6 ar
   3    1    7 1
   4    2    3 ar
   5    2   26 1
   6    3    4 ar
   7    3   27 1
   8    4    5 ar
   9    4    8 1
  10    5    6 ar
  11    5   28 1
  12    6   29 1
  13    7   18 1
  14    7   30 1
  15    8   17 1
  16    8   31 1
  17    9   10 ar
  18    9   14 ar
  19    9   17 1
  20   10   11 ar
  21   10   16 1
  22   11   12 ar
  23   11   32 1
  24   12   13 ar
  25   12   33 1
  26   13   14 ar
  27   13   34 1
  28   15   16 1
  29   15   17 2
  30   16   35 1
  31   18   19 ar
  32   18   23 ar
  33   19   20 ar
  34   20   21 ar
  35   20   24 1
  36   21   22 ar
  37   21   36 1
  38   22   23 ar
  39   22   37 1
  40   24   25 1
  41   25   38 1
  42   25   39 1
  43   25   40 1

#	End of record

