#	Name: ASD01720023
#	Creating user name:	WinNT
#	Creation time:	15. 06. 2019 19:23

#	Modifying user name:	WinNT
#	Modification time:	15. 06. 2019 19:23

#	Program:	/corina/corina34_cracker 3.40 0067  02.08.2006

@<TRIPOS>MOLECULE
ASD01720023
  42   44    0    0    0
SMALL
NO_CHARGES


@<TRIPOS>ATOM
   1 S1             0.0021    -0.0041     0.0020 S.2     
   2 P2            -0.0232     1.8593     0.0123 P.3     
   3 P3            -2.2972     2.2023    -1.8577 P.3     
   4 O4             3.6960     4.0048     1.0069 O.3     
   5 O5             6.9175     3.1486     2.3446 O.3     
   6 O6             6.0000     1.5347     0.5219 O.3     
   7 O7             1.4872     2.4165     0.0008 O.3     
   8 O8            -0.8019     2.3926    -1.2921 O.3     
   9 O9            -0.7768     2.3785     1.3369 O.3     
  10 O10           -3.2957     3.1979    -1.0806 O.3     
  11 O11           -2.3222     2.5381    -3.4321 O.3     
  12 O12           -2.7309     0.8033    -1.6447 O.2     
  13 N13            4.8560     5.5580     2.4076 N.pl3   
  14 N14            3.9708     6.9825     3.8046 N.2     
  15 N15            7.0971     6.6514     2.3375 N.ar    
  16 N16            7.2940     8.5398     3.6559 N.ar    
  17 N17            5.5171     9.3733     4.9642 N.pl3   
  18 C18            5.4903     3.1648     2.2741 C.3     
  19 C19            4.9677     2.0063     1.3901 C.3     
  20 C20            4.9887     4.4128     1.5038 C.3     
  21 C21            3.8243     2.6400     0.5741 C.3     
  22 C22            2.5188     1.8863     0.8356 C.3     
  23 C23            5.8317     6.4761     2.7034 C.ar    
  24 C24            3.7386     5.9104     3.1044 C.2     
  25 C25            5.2484     7.3853     3.6022 C.ar    
  26 C26            6.0371     8.4465     4.0777 C.ar    
  27 C27            7.7979     7.6615     2.8083 C.ar    
  28 H28            5.0529     3.1209     3.2715 H       
  29 H29            4.5911     1.1930     2.0105 H       
  30 H30            5.6590     4.6524     0.6783 H       
  31 H31            4.0660     2.6093    -0.4883 H       
  32 H32            2.2353     2.0027     1.8817 H       
  33 H33            2.6589     0.8286     0.6126 H       
  34 H34            7.2827     2.3443     2.7379 H       
  35 H35            6.7708     1.1784     0.9845 H       
  36 H36            2.7989     5.3786     3.0788 H       
  37 H37            8.8238     7.7752     2.4906 H       
  38 H38            6.0715    10.1017     5.2850 H       
  39 H39            4.5982     9.2945     5.2647 H       
  40 H40           -0.8274     3.3415     1.4087 H       
  41 H41           -3.0714     4.1336    -1.1764 H       
  42 H42           -3.1937     2.4442    -3.8405 H       
@<TRIPOS>BOND
   1    1    2 2
   2    2    7 1
   3    2    8 1
   4    2    9 1
   5    3    8 1
   6    3   10 1
   7    3   11 1
   8    3   12 2
   9    4   20 1
  10    4   21 1
  11    5   34 1
  12    5   18 1
  13    6   35 1
  14    6   19 1
  15    7   22 1
  16    9   40 1
  17   10   41 1
  18   11   42 1
  19   13   23 1
  20   13   24 1
  21   13   20 1
  22   14   24 2
  23   14   25 1
  24   15   23 ar
  25   15   27 ar
  26   16   26 ar
  27   16   27 ar
  28   17   26 1
  29   17   38 1
  30   17   39 1
  31   18   19 1
  32   18   28 1
  33   18   20 1
  34   19   21 1
  35   19   29 1
  36   20   30 1
  37   21   22 1
  38   21   31 1
  39   22   32 1
  40   22   33 1
  41   23   25 ar
  42   24   36 1
  43   25   26 ar
  44   27   37 1

#	End of record

