#	Name: ASD02198305
#	Creating user name:	WinNT
#	Creation time:	15. 06. 2019 20:19

#	Modifying user name:	WinNT
#	Modification time:	15. 06. 2019 20:19

#	Program:	/corina/corina34_cracker 3.40 0067  02.08.2006

@<TRIPOS>MOLECULE
ASD02198305
  34   36    0    0    0
SMALL
NO_CHARGES


@<TRIPOS>ATOM
   1 C1            -0.1173     1.5783     1.0458 C.2     
   2 C2            -0.1151     0.1954     1.0721 C.2     
   3 S3             1.5399     2.1111     0.7746 S.3     
   4 C4             2.0708     0.4879     0.7222 C.2     
   5 N5             1.0737    -0.3314     0.8950 N.2     
   6 N6            -1.2590    -0.5616     1.2672 N.pl3   
   7 C7            -1.2418     2.4099     1.2016 C.2     
   8 C8            -1.0672     3.8740     1.3311 C.ar    
   9 O9            -2.3599     1.9244     1.2298 O.2     
  10 N10            3.3767     0.0988     0.5234 N.pl3   
  11 C11            3.7356    -1.2451     0.6676 C.ar    
  12 C12            2.8296    -2.1541     1.1971 C.ar    
  13 C13           -2.0835     4.7394     0.9245 C.ar    
  14 C14            0.1119     4.3944     1.8658 C.ar    
  15 C15            0.2682     5.7600     1.9843 C.ar    
  16 C16           -0.7413     6.6130     1.5749 C.ar    
  17 C17           -1.9148     6.1031     1.0484 C.ar    
  18 C18            3.1876    -3.4820     1.3384 C.ar    
  19 C19            4.4472    -3.9054     0.9526 C.ar    
  20 C20            5.3521    -3.0022     0.4252 C.ar    
  21 C21            4.9984    -1.6749     0.2756 C.ar    
  22 Cl22           6.1349    -0.5422    -0.3871 Cl      
  23 Cl23           2.0557    -4.6194     2.0010 Cl      
  24 H24           -2.1150    -0.1231     1.3939 H       
  25 H25           -1.2039    -1.5299     1.2772 H       
  26 H26            4.0477     0.7569     0.2833 H       
  27 H27            1.8465    -1.8241     1.4987 H       
  28 H28           -3.0000     4.3426     0.5135 H       
  29 H29            0.9003     3.7296     2.1864 H       
  30 H30            1.1804     6.1641     2.3979 H       
  31 H31           -0.6143     7.6813     1.6704 H       
  32 H32           -2.6989     6.7742     0.7302 H       
  33 H33            4.7244    -4.9432     1.0640 H       
  34 H34            6.3347    -3.3357     0.1257 H       
@<TRIPOS>BOND
   1    1    2 2
   2    1    3 1
   3    1    7 1
   4    2    6 1
   5    2    5 1
   6    3    4 1
   7    4    5 2
   8    4   10 1
   9    6   24 1
  10    6   25 1
  11    7    8 1
  12    7    9 2
  13    8   13 ar
  14    8   14 ar
  15   10   11 1
  16   10   26 1
  17   11   12 ar
  18   11   21 ar
  19   12   18 ar
  20   12   27 1
  21   13   17 ar
  22   13   28 1
  23   14   15 ar
  24   14   29 1
  25   15   16 ar
  26   15   30 1
  27   16   17 ar
  28   16   31 1
  29   17   32 1
  30   18   19 ar
  31   18   23 1
  32   19   20 ar
  33   19   33 1
  34   20   21 ar
  35   20   34 1
  36   21   22 1

#	End of record

