#	Name: ASD01884909
#	Creating user name:	WinNT
#	Creation time:	15. 06. 2019 19:49

#	Modifying user name:	WinNT
#	Modification time:	15. 06. 2019 19:49

#	Program:	/corina/corina34_cracker 3.40 0067  02.08.2006

@<TRIPOS>MOLECULE
ASD01884909
  53   58    0    0    0
SMALL
NO_CHARGES


@<TRIPOS>ATOM
   1 C1             0.5192     1.4929     0.2043 C.ar    
   2 C2             0.3691     0.1207     0.1569 C.ar    
   3 C3             1.4886    -0.6988     0.0132 C.ar    
   4 C4             2.7573    -0.1305    -0.0904 C.ar    
   5 C5             2.8942     1.2475    -0.0498 C.ar    
   6 C6             1.7797     2.0505     0.1092 C.ar    
   7 C7             1.3295    -2.1717    -0.0287 C.2     
   8 C8             1.5960    -2.8694    -1.1913 C.2     
   9 C9             0.9087    -2.8784     1.1240 C.2     
  10 C10            0.7657    -4.2164     1.0842 C.2     
  11 N11            1.0217    -4.9133    -0.0615 N.pl3   
  12 C12            1.4365    -4.2657    -1.2001 C.2     
  13 C13            0.9642    -6.2343    -0.3855 C.2     
  14 N14            1.3194    -6.3484    -1.6393 N.2     
  15 N15            1.6013    -5.1931    -2.1307 N.2     
  16 O16            4.1233     1.8165    -0.1925 O.3     
  17 C17            4.3280     2.5350    -1.4148 C.3     
  18 C18            3.8322     3.9596    -1.2905 C.3     
  19 N19            2.3873     4.0618    -1.1034 N.3     
  20 C20            1.9518     3.5541     0.2024 C.3     
  21 C21            1.9481     5.3730    -1.3027 C.ar    
  22 C22            0.5933     5.6760    -1.2635 C.ar    
  23 N23            0.1753     6.9120    -1.4511 N.ar    
  24 C24            1.0152     7.9021    -1.6813 C.ar    
  25 C25            2.3788     7.6792    -1.7355 C.ar    
  26 C26            2.8631     6.3968    -1.5379 C.ar    
  27 C27            0.5642    -7.3601     0.5329 C.3     
  28 C28           -0.6476    -8.2032     0.1309 C.3     
  29 C29            0.7614    -8.7899     0.0253 C.3     
  30 C30            2.0505    -2.1438    -2.4315 C.3     
  31 F31            3.4281    -1.9116    -2.3575 F       
  32 F32            1.7689    -2.9242    -3.5579 F       
  33 F33            1.3763    -0.9219    -2.5303 F       
  34 H34           -0.3472     2.1287     0.3111 H       
  35 H35           -0.6151    -0.3177     0.2313 H       
  36 H36            3.6277    -0.7602    -0.2013 H       
  37 H37            0.7020    -2.3421     2.0384 H       
  38 H38            0.4448    -4.7451     1.9696 H       
  39 H39            5.3921     2.5449    -1.6511 H       
  40 H40            3.7874     2.0360    -2.2190 H       
  41 H41            4.3279     4.4284    -0.4405 H       
  42 H42            4.1062     4.5042    -2.1941 H       
  43 H43            1.0021     4.0144     0.4750 H       
  44 H44            2.7038     3.7898     0.9553 H       
  45 H45           -0.1250     4.8912    -1.0778 H       
  46 H46            0.6327     8.9011    -1.8299 H       
  47 H47            3.0587     8.4966    -1.9254 H       
  48 H48            3.9232     6.1939    -1.5748 H       
  49 H49            0.7197    -7.1772     1.5962 H       
  50 H50           -1.2892    -8.5752     0.9297 H       
  51 H51           -1.1556    -7.9435    -0.7979 H       
  52 H52            1.1805    -8.9163    -0.9729 H       
  53 H53            1.0469    -9.5480     0.7546 H       
@<TRIPOS>BOND
   1    1    2 ar
   2    1    6 ar
   3    1   34 1
   4    2    3 ar
   5    2   35 1
   6    3    4 ar
   7    3    7 1
   8    4    5 ar
   9    4   36 1
  10    5    6 ar
  11    5   16 1
  12    6   20 1
  13    7    8 2
  14    7    9 1
  15    8   30 1
  16    8   12 1
  17    9   10 2
  18    9   37 1
  19   10   11 1
  20   10   38 1
  21   11   12 1
  22   11   13 1
  23   12   15 2
  24   13   14 2
  25   13   27 1
  26   14   15 1
  27   16   17 1
  28   17   18 1
  29   17   39 1
  30   17   40 1
  31   18   19 1
  32   18   41 1
  33   18   42 1
  34   19   20 1
  35   19   21 1
  36   20   43 1
  37   20   44 1
  38   21   22 ar
  39   21   26 ar
  40   22   23 ar
  41   22   45 1
  42   23   24 ar
  43   24   25 ar
  44   24   46 1
  45   25   26 ar
  46   25   47 1
  47   26   48 1
  48   27   28 1
  49   27   29 1
  50   27   49 1
  51   28   29 1
  52   28   50 1
  53   28   51 1
  54   29   52 1
  55   29   53 1
  56   30   31 1
  57   30   32 1
  58   30   33 1

#	End of record

