#	Name: ASD02039030
#	Creating user name:	WinNT
#	Creation time:	15. 06. 2019 20:17

#	Modifying user name:	WinNT
#	Modification time:	15. 06. 2019 20:17

#	Program:	/corina/corina34_cracker 3.40 0067  02.08.2006

@<TRIPOS>MOLECULE
ASD02039030
  42   45    0    0    0
SMALL
NO_CHARGES


@<TRIPOS>ATOM
   1 N1             0.0026     1.2784    -0.2071 N.2     
   2 N2             0.0318    -0.0042    -0.3032 N.2     
   3 C3             1.2281     1.7343    -0.1152 C.2     
   4 O4             2.0536     0.6719    -0.1573 O.3     
   5 C5             1.2660    -0.4146    -0.2767 C.2     
   6 N6             1.6033     3.0607     0.0028 N.pl3   
   7 C7             0.6403     4.0705    -0.0881 C.ar    
   8 C8             1.7304    -1.8457    -0.3633 C.3     
   9 O9             1.9403    -2.1963    -1.7326 O.3     
  10 C10            2.3641    -3.4628    -1.9874 C.ar    
  11 C11            2.5854    -3.8641    -3.2898 C.ar    
  12 C12            2.5781    -4.3472    -0.9332 C.ar    
  13 C13            3.0082    -5.6338    -1.1725 C.ar    
  14 C14            3.2322    -6.0601    -2.4771 C.ar    
  15 C15            3.0217    -5.1680    -3.5455 C.ar    
  16 C16            0.8205     5.2670     0.5935 C.ar    
  17 C17           -0.4957     3.8808    -0.8650 C.ar    
  18 C18           -1.4450     4.8797    -0.9529 C.ar    
  19 C19           -1.2656     6.0689    -0.2679 C.ar    
  20 C20           -0.1324     6.2627     0.5020 C.ar    
  21 Cl21          -2.4610     7.3228    -0.3811 Cl      
  22 N22            3.6628    -7.3453    -2.7376 N.am    
  23 C23            3.8796    -7.7599    -3.9980 C.2     
  24 C24            3.6788    -6.9061    -5.1036 C.2     
  25 C25            3.2609    -5.6301    -4.9141 C.2     
  26 O26            4.2596    -8.9020    -4.1907 O.2     
  27 C27            0.0594     7.5590     1.2463 C.3     
  28 F28            1.2689     7.5191     1.9482 F       
  29 F29            0.0835     8.6206     0.3355 F       
  30 F30           -0.9962     7.7405     2.1463 F       
  31 H31            2.5345     3.2902     0.1485 H       
  32 H32            2.6639    -1.9587     0.1880 H       
  33 H33            0.9726    -2.5003     0.0673 H       
  34 H34            2.4225    -3.1756    -4.1058 H       
  35 H35            2.4056    -4.0210     0.0819 H       
  36 H36            3.1717    -6.3111    -0.3472 H       
  37 H37            1.7047     5.4187     1.1949 H       
  38 H38           -0.6360     2.9532    -1.3999 H       
  39 H39           -2.3282     4.7329    -1.5569 H       
  40 H40            3.8114    -7.9583    -2.0007 H       
  41 H41            3.8622    -7.2691    -6.1041 H       
  42 H42            3.1045    -4.9702    -5.7546 H       
@<TRIPOS>BOND
   1    1    2 1
   2    1    3 2
   3    2    5 2
   4    3    4 1
   5    3    6 1
   6    4    5 1
   7    5    8 1
   8    6    7 1
   9    6   31 1
  10    7   16 ar
  11    7   17 ar
  12    8    9 1
  13    8   32 1
  14    8   33 1
  15    9   10 1
  16   10   11 ar
  17   10   12 ar
  18   11   15 ar
  19   11   34 1
  20   12   13 ar
  21   12   35 1
  22   13   14 ar
  23   13   36 1
  24   14   15 ar
  25   14   22 1
  26   15   25 1
  27   16   20 ar
  28   16   37 1
  29   17   18 ar
  30   17   38 1
  31   18   19 ar
  32   18   39 1
  33   19   20 ar
  34   19   21 1
  35   20   27 1
  36   22   23 am
  37   22   40 1
  38   23   24 1
  39   23   26 2
  40   24   25 2
  41   24   41 1
  42   25   42 1
  43   27   28 1
  44   27   29 1
  45   27   30 1

#	End of record

