#	Name: ASD01208533
#	Creating user name:	WinNT
#	Creation time:	15. 06. 2019 19:10

#	Modifying user name:	WinNT
#	Modification time:	15. 06. 2019 19:10

#	Program:	/corina/corina34_cracker 3.40 0067  02.08.2006

@<TRIPOS>MOLECULE
ASD01208533
  65   68    0    0    0
SMALL
NO_CHARGES


@<TRIPOS>ATOM
   1 N1             0.0844     1.5072    -0.4552 N.pl3   
   2 C2             0.1558     0.1366    -0.5644 C.2     
   3 C3             1.4874    -0.2146    -0.6605 C.2     
   4 C4             2.2342     0.9610    -0.6087 C.2     
   5 C5             1.3514     2.0117    -0.4820 C.2     
   6 C6            -0.9821    -0.7875    -0.5760 C.2     
   7 O7            -0.7923    -1.9853    -0.6781 O.2     
   8 N8            -2.2385    -0.3106    -0.4737 N.am    
   9 C9            -3.3757    -1.2341    -0.4854 C.3     
  10 C10           -4.6779    -0.4412    -0.3564 C.3     
  11 Cl11          -6.0775    -1.5778    -0.3707 Cl      
  12 C12            1.7155     3.4415    -0.3909 C.ar    
  13 C13            0.7193     4.4105    -0.2646 C.ar    
  14 C14            1.0649     5.7490    -0.1796 C.ar    
  15 C15            2.3997     6.1269    -0.2197 C.ar    
  16 C16            3.3930     5.1668    -0.3456 C.ar    
  17 C17            3.0564     3.8254    -0.4251 C.ar    
  18 O18            4.6985     5.5423    -0.3854 O.3     
  19 C19            5.6739     4.4979    -0.3964 C.3     
  20 C20            6.9934     5.0265     0.1697 C.3     
  21 C21            5.8910     4.0180    -1.8328 C.3     
  22 O22            7.5123     6.0376    -0.6967 O.3     
  23 C23            8.7500     6.6006    -0.2570 C.3     
  24 O24            0.0956     6.6936    -0.0570 O.3     
  25 C25           -0.6428     6.7037     1.0792 C.ar    
  26 C26           -1.7142     7.5864     1.1939 C.ar    
  27 C27           -2.4623     7.5916     2.3541 C.ar    
  28 C28           -2.1095     6.7001     3.3782 C.ar    
  29 C29           -1.0225     5.8465     3.1876 C.ar    
  30 N30           -0.3390     5.8708     2.0625 N.ar    
  31 Cl31          -2.1039     8.6679    -0.1069 Cl      
  32 C32           -2.8767     6.6659     4.6389 C.2     
  33 O33           -2.4795     5.9985     5.5743 O.2     
  34 N34           -4.0173     7.3747     4.7530 N.am    
  35 C35           -5.0564     7.5509     5.7787 C.3     
  36 C36           -6.0417     7.8758     4.6473 C.3     
  37 C37           -4.7672     8.3174     3.9092 C.3     
  38 H38           -0.7307     2.0273    -0.3765 H       
  39 H39            1.8787    -1.2165    -0.7575 H       
  40 H40            3.3105     1.0352    -0.6588 H       
  41 H41           -2.3898     0.6441    -0.3924 H       
  42 H42           -3.3812    -1.7919    -1.4218 H       
  43 H43           -3.2887    -1.9282     0.3505 H       
  44 H44           -4.6724     0.1166     0.5801 H       
  45 H45           -4.7650     0.2529    -1.1922 H       
  46 H46           -0.3196     4.1172    -0.2336 H       
  47 H47            2.6658     7.1715    -0.1532 H       
  48 H48            3.8306     3.0782    -0.5182 H       
  49 H49            5.3232     3.6668     0.2154 H       
  50 H50            6.8207     5.4496     1.1593 H       
  51 H51            7.7103     4.2088     0.2441 H       
  52 H52            4.9510     3.6414    -2.2361 H       
  53 H53            6.2418     4.8491    -2.4445 H       
  54 H54            6.6350     3.2214    -1.8412 H       
  55 H55            9.0769     7.3594    -0.9679 H       
  56 H56            8.6137     7.0563     0.7238 H       
  57 H57            9.5033     5.8156    -0.1914 H       
  58 H58           -3.2982     8.2655     2.4706 H       
  59 H59           -0.7413     5.1561     3.9692 H       
  60 H60           -5.2979     6.6327     6.3141 H       
  61 H61           -4.8693     8.3919     6.4462 H       
  62 H62           -6.5316     7.0025     4.2168 H       
  63 H63           -6.7294     8.6906     4.8739 H       
  64 H64           -4.5038     9.3605     4.0840 H       
  65 H65           -4.7622     8.0522     2.8520 H       
@<TRIPOS>BOND
   1    1    2 1
   2    1    5 1
   3    1   38 1
   4    2    3 2
   5    2    6 1
   6    3    4 1
   7    3   39 1
   8    4    5 2
   9    4   40 1
  10    5   12 1
  11    6    7 2
  12    6    8 am
  13    8    9 1
  14    8   41 1
  15    9   10 1
  16    9   42 1
  17    9   43 1
  18   10   11 1
  19   10   44 1
  20   10   45 1
  21   12   13 ar
  22   12   17 ar
  23   13   14 ar
  24   13   46 1
  25   14   15 ar
  26   14   24 1
  27   15   16 ar
  28   15   47 1
  29   16   17 ar
  30   16   18 1
  31   17   48 1
  32   18   19 1
  33   19   20 1
  34   19   21 1
  35   19   49 1
  36   20   22 1
  37   20   50 1
  38   20   51 1
  39   21   52 1
  40   21   53 1
  41   21   54 1
  42   22   23 1
  43   23   55 1
  44   23   56 1
  45   23   57 1
  46   24   25 1
  47   25   26 ar
  48   25   30 ar
  49   26   27 ar
  50   26   31 1
  51   27   28 ar
  52   27   58 1
  53   28   29 ar
  54   28   32 1
  55   29   30 ar
  56   29   59 1
  57   32   33 2
  58   32   34 am
  59   34   35 1
  60   34   37 1
  61   35   36 1
  62   35   60 1
  63   35   61 1
  64   36   37 1
  65   36   62 1
  66   36   63 1
  67   37   64 1
  68   37   65 1

#	End of record

