#	Name: ASD01882002
#	Creating user name:	WinNT
#	Creation time:	15. 06. 2019 19:43

#	Modifying user name:	WinNT
#	Modification time:	15. 06. 2019 19:43

#	Program:	/corina/corina34_cracker 3.40 0067  02.08.2006

@<TRIPOS>MOLECULE
ASD01882002
  52   55    0    0    0
SMALL
NO_CHARGES


@<TRIPOS>ATOM
   1 C1            -0.0212     1.4979     0.0167 C.2     
   2 C2             0.0060    -0.0088     0.0058 C.3     
   3 C3            -0.4527    -0.5371     1.3664 C.3     
   4 O4             1.3367    -0.4593    -0.2561 O.3     
   5 O5             1.0178     2.1233     0.0017 O.2     
   6 N6            -1.2003     2.1504     0.0375 N.am    
   7 C7            -1.2440     3.6137     0.1623 C.3     
   8 C8            -2.1538     3.9812     1.3387 C.3     
   9 C9            -3.5230     3.3259     1.1436 C.3     
  10 C10           -3.3626     1.8042     1.1141 C.3     
  11 C11           -2.4662     1.4125    -0.0704 C.3     
  12 C12           -4.4455     3.7189     2.2992 C.3     
  13 O13           -5.7565     3.2037     2.0586 O.3     
  14 N14           -9.7577     4.1178     5.6860 N.pl3   
  15 N15          -10.7606     3.4305     4.9864 N.2     
  16 N16          -10.2713     2.9513     3.8975 N.2     
  17 C17           -8.9651     3.2673     3.7918 C.ar    
  18 C18           -8.6133     4.0159     4.9283 C.ar    
  19 C19           -7.9898     2.9953     2.8225 C.ar    
  20 C20           -6.7047     3.4656     2.9974 C.ar    
  21 C21           -6.3714     4.2064     4.1288 C.ar    
  22 C22           -7.3112     4.4781     5.0827 C.ar    
  23 C23           -9.9017     4.8127     6.9677 C.3     
  24 C24           -9.6053     3.8404     8.1112 C.3     
  25 C25           -9.5878     4.4058     9.5327 C.3     
  26 C26          -10.7468     3.5169     9.0772 C.3     
  27 Br27          -8.4332     1.9902     1.2834 Br      
  28 H28           -0.6624    -0.3787    -0.7717 H       
  29 H29           -1.4315    -0.1217     1.6063 H       
  30 H30           -0.5184    -1.6245     1.3307 H       
  31 H31            0.2649    -0.2413     2.1317 H       
  32 H32            1.9866    -0.1669     0.3974 H       
  33 H33           -0.2392     3.9950     0.3444 H       
  34 H34           -1.6407     4.0471    -0.7558 H       
  35 H35           -1.7090     3.6249     2.2678 H       
  36 H36           -2.2717     5.0639     1.3830 H       
  37 H37           -3.9564     3.6637     0.2022 H       
  38 H38           -2.9064     1.4684     2.0454 H       
  39 H39           -4.3408     1.3375     0.9986 H       
  40 H40           -2.9606     1.6701    -1.0071 H       
  41 H41           -2.2682     0.3410    -0.0420 H       
  42 H42           -4.0579     3.3055     3.2303 H       
  43 H43           -4.4904     4.8053     2.3750 H       
  44 H44           -5.3615     4.5683     4.2535 H       
  45 H45           -7.0427     5.0532     5.9566 H       
  46 H46           -9.2014     5.6469     7.0094 H       
  47 H47          -10.9203     5.1883     7.0649 H       
  48 H48           -8.9010     3.0417     7.8785 H       
  49 H49           -8.8722     3.9790    10.2354 H       
  50 H50           -9.7874     5.4706     9.6533 H       
  51 H51          -11.7090     3.9969     8.8982 H       
  52 H52          -10.7937     2.5053     9.4802 H       
@<TRIPOS>BOND
   1    1    2 1
   2    1    5 2
   3    1    6 am
   4    2    3 1
   5    2    4 1
   6    2   28 1
   7    3   29 1
   8    3   30 1
   9    3   31 1
  10    4   32 1
  11    6    7 1
  12    6   11 1
  13    7    8 1
  14    7   33 1
  15    7   34 1
  16    8    9 1
  17    8   35 1
  18    8   36 1
  19    9   10 1
  20    9   12 1
  21    9   37 1
  22   10   11 1
  23   10   38 1
  24   10   39 1
  25   11   40 1
  26   11   41 1
  27   12   13 1
  28   12   42 1
  29   12   43 1
  30   13   20 1
  31   14   15 1
  32   14   18 1
  33   14   23 1
  34   15   16 2
  35   16   17 1
  36   17   18 ar
  37   17   19 ar
  38   18   22 ar
  39   19   20 ar
  40   19   27 1
  41   20   21 ar
  42   21   22 ar
  43   21   44 1
  44   22   45 1
  45   23   24 1
  46   23   46 1
  47   23   47 1
  48   24   25 1
  49   24   26 1
  50   24   48 1
  51   25   26 1
  52   25   49 1
  53   25   50 1
  54   26   51 1
  55   26   52 1

#	End of record

