#	Name: ASD01410588
#	Creating user name:	WinNT
#	Creation time:	15. 06. 2019 19:18

#	Modifying user name:	WinNT
#	Modification time:	15. 06. 2019 19:18

#	Program:	/corina/corina34_cracker 3.40 0067  02.08.2006

@<TRIPOS>MOLECULE
ASD01410588
  61   63    0    0    0
SMALL
NO_CHARGES


@<TRIPOS>ATOM
   1 C1             0.2268    -3.3367     1.2022 C.ar    
   2 C2             0.9470    -3.8180     2.2866 C.ar    
   3 C3             2.3194    -3.6656     2.3075 C.ar    
   4 N4             2.9489    -3.0704     1.3126 N.ar    
   5 C5             2.2975    -2.5987     0.2622 C.ar    
   6 C6             0.9163    -2.7171     0.1743 C.ar    
   7 O7             2.9849    -1.9935    -0.7386 O.3     
   8 C8             4.3258    -1.8295    -0.5837 C.ar    
   9 C9             5.1787    -2.9160    -0.7375 C.ar    
  10 C10            6.5413    -2.7607    -0.5825 C.ar    
  11 C11            7.0698    -1.5157    -0.2708 C.ar    
  12 C12            6.2140    -0.4147    -0.1142 C.ar    
  13 C13            4.8369    -0.5810    -0.2792 C.ar    
  14 N14            8.4461    -1.3597    -0.1135 N.am    
  15 C15            9.2250    -1.1255    -1.1882 C.2     
  16 C16            9.0459    -1.4502     1.2201 C.3     
  17 O17           10.4297    -1.0635    -1.0621 O.2     
  18 C18            8.5991    -0.9407    -2.5465 C.3     
  19 C19            9.3105    -2.9180     1.5616 C.3     
  20 O20           10.3141    -3.4371     0.6869 O.3     
  21 C21           10.6377    -4.8089     0.9227 C.3     
  22 C22            9.6197    -1.2927    -3.6306 C.3     
  23 C23            8.9842    -1.1051    -5.0096 C.3     
  24 C24            8.5461     0.3514    -5.1754 C.3     
  25 C25            7.5254     0.7034    -4.0913 C.3     
  26 C26            8.1609     0.5158    -2.7123 C.3     
  27 C27            7.9106     0.5390    -6.5545 C.3     
  28 C28            0.1785    -2.1782    -1.0241 C.3     
  29 F29           -1.1916    -2.4191    -0.8753 F       
  30 F30            0.4012    -0.8010    -1.1284 F       
  31 F31            0.6408    -2.8143    -2.1812 F       
  32 C32            6.7657     0.9113     0.2172 C.2     
  33 O33            7.9646     1.0532     0.3556 O.2     
  34 O34            5.9406     1.9662     0.3668 O.3     
  35 H35           -0.8467    -3.4471     1.1593 H       
  36 H36            0.4395    -4.3063     3.1054 H       
  37 H37            2.8844    -4.0381     3.1492 H       
  38 H38            4.7730    -3.8872    -0.9793 H       
  39 H39            7.1977    -3.6097    -0.7036 H       
  40 H40            4.1719     0.2616    -0.1603 H       
  41 H41            9.9860    -0.8988     1.2339 H       
  42 H42            8.3635    -1.0235     1.9551 H       
  43 H43            7.7313    -1.5939    -2.6386 H       
  44 H44            9.6529    -2.9948     2.5936 H       
  45 H45            8.3911    -3.4907     1.4402 H       
  46 H46           11.0076    -4.9250     1.9414 H       
  47 H47            9.7458    -5.4209     0.7881 H       
  48 H48           11.4064    -5.1272     0.2186 H       
  49 H49           10.4875    -0.6395    -3.5385 H       
  50 H50            9.9319    -2.3304    -3.5125 H       
  51 H51            9.7114    -1.3559    -5.7819 H       
  52 H52            8.1165    -1.7583    -5.1017 H       
  53 H53            9.4138     1.0046    -5.0833 H       
  54 H54            7.2132     1.7411    -4.2094 H       
  55 H55            6.6577     0.0502    -4.1834 H       
  56 H56            7.4337     0.7666    -1.9400 H       
  57 H57            9.0286     1.1690    -2.6202 H       
  58 H58            7.0428    -0.1142    -6.6466 H       
  59 H59            7.5984     1.5767    -6.6725 H       
  60 H60            8.6377     0.2882    -7.3268 H       
  61 H61            6.3488     2.8154     0.5840 H       
@<TRIPOS>BOND
   1    1    2 ar
   2    1    6 ar
   3    1   35 1
   4    2    3 ar
   5    2   36 1
   6    3    4 ar
   7    3   37 1
   8    4    5 ar
   9    5    6 ar
  10    5    7 1
  11    6   28 1
  12    7    8 1
  13    8    9 ar
  14    8   13 ar
  15    9   10 ar
  16    9   38 1
  17   10   11 ar
  18   10   39 1
  19   11   12 ar
  20   11   14 1
  21   12   13 ar
  22   12   32 1
  23   13   40 1
  24   14   15 am
  25   14   16 1
  26   15   17 2
  27   15   18 1
  28   16   19 1
  29   16   41 1
  30   16   42 1
  31   18   22 1
  32   18   26 1
  33   18   43 1
  34   19   20 1
  35   19   44 1
  36   19   45 1
  37   20   21 1
  38   21   46 1
  39   21   47 1
  40   21   48 1
  41   22   23 1
  42   22   49 1
  43   22   50 1
  44   23   24 1
  45   23   51 1
  46   23   52 1
  47   24   25 1
  48   24   27 1
  49   24   53 1
  50   25   26 1
  51   25   54 1
  52   25   55 1
  53   26   56 1
  54   26   57 1
  55   27   58 1
  56   27   59 1
  57   27   60 1
  58   28   29 1
  59   28   30 1
  60   28   31 1
  61   32   33 2
  62   32   34 1
  63   34   61 1

#	End of record

