#	Name: ASD07930951
#	Creating user name:	WinNT
#	Creation time:	15. 06. 2019 21:13

#	Modifying user name:	WinNT
#	Modification time:	15. 06. 2019 21:13

#	Program:	/corina/corina34_cracker 3.40 0067  02.08.2006

@<TRIPOS>MOLECULE
ASD07930951
  47   52    0    0    0
SMALL
NO_CHARGES


@<TRIPOS>ATOM
   1 C1            -0.0169     1.3965     0.0097 C.ar    
   2 N2             0.0021    -0.0041     0.0020 N.am    
   3 N3            -0.0766    -0.8097     1.1408 N.2     
   4 C4            -0.0357    -2.0724     0.8244 C.2     
   5 C5             0.0805    -2.1541    -0.6493 C.2     
   6 C6             0.0932    -0.7683    -1.1076 C.2     
   7 O7             0.1766    -0.3787    -2.2611 O.2     
   8 C8            -0.0776    -3.3451     1.5696 C.ar    
   9 C9            -0.0055    -4.5450     0.8425 C.ar    
  10 N10            0.1026    -4.5247    -0.5386 N.pl3   
  11 C11            0.1434    -3.3862    -1.2521 C.2     
  12 C12           -0.1846    -3.3719     2.9562 C.ar    
  13 C13           -0.2196    -4.5833     3.6160 C.ar    
  14 C14           -0.1483    -5.7684     2.9017 C.ar    
  15 C15           -0.0434    -5.7549     1.5262 C.ar    
  16 C16            0.1720    -5.7450    -1.2220 C.ar    
  17 C17            1.4085    -6.3370    -1.4680 C.ar    
  18 C18            1.1746     2.1084     0.0022 C.ar    
  19 C19            1.1527     3.4899     0.0098 C.ar    
  20 C20           -0.0539     4.1646     0.0255 C.ar    
  21 C21           -1.2440     3.4599     0.0335 C.ar    
  22 C22           -1.2301     2.0773     0.0192 C.ar    
  23 F23           -2.3924     1.3887     0.0270 F       
  24 C24           -0.9923    -6.3690    -1.6502 C.ar    
  25 C25           -0.9237    -7.5726    -2.3244 C.ar    
  26 C26            0.3024    -8.1607    -2.5736 C.ar    
  27 C27            1.4711    -7.5480    -2.1438 C.ar    
  28 O28            2.6685    -8.1457    -2.3924 O.3     
  29 C29            3.8346    -7.3227    -2.2795 C.3     
  30 C30            3.7295    -6.5164    -0.9779 C.3     
  31 O31            2.5432    -5.7154    -1.0441 O.3     
  32 H32            0.2285    -3.4420    -2.3272 H       
  33 H33           -0.2396    -2.4488     3.5140 H       
  34 H34           -0.3026    -4.6078     4.6925 H       
  35 H35           -0.1761    -6.7118     3.4267 H       
  36 H36            0.0115    -6.6851     0.9802 H       
  37 H37            2.1180     1.5830    -0.0093 H       
  38 H38            2.0799     4.0438     0.0040 H       
  39 H39           -0.0673     5.2445     0.0318 H       
  40 H40           -2.1849     3.9899     0.0461 H       
  41 H41           -1.9519    -5.9131    -1.4557 H       
  42 H42           -1.8304    -8.0557    -2.6574 H       
  43 H43            0.3506    -9.1022    -3.1006 H       
  44 H44            4.7258    -7.9497    -2.2526 H       
  45 H45            3.8883    -6.6428    -3.1298 H       
  46 H46            3.6705    -7.1963    -0.1280 H       
  47 H47            4.6019    -5.8714    -0.8735 H       
@<TRIPOS>BOND
   1    1    2 1
   2    1   18 ar
   3    1   22 ar
   4    2    3 1
   5    2    6 am
   6    3    4 2
   7    4    5 1
   8    4    8 1
   9    5    6 1
  10    5   11 2
  11    6    7 2
  12    8    9 ar
  13    8   12 ar
  14    9   10 1
  15    9   15 ar
  16   10   11 1
  17   10   16 1
  18   11   32 1
  19   12   13 ar
  20   12   33 1
  21   13   14 ar
  22   13   34 1
  23   14   15 ar
  24   14   35 1
  25   15   36 1
  26   16   17 ar
  27   16   24 ar
  28   17   27 ar
  29   17   31 1
  30   18   19 ar
  31   18   37 1
  32   19   20 ar
  33   19   38 1
  34   20   21 ar
  35   20   39 1
  36   21   22 ar
  37   21   40 1
  38   22   23 1
  39   24   25 ar
  40   24   41 1
  41   25   26 ar
  42   25   42 1
  43   26   27 ar
  44   26   43 1
  45   27   28 1
  46   28   29 1
  47   29   30 1
  48   29   44 1
  49   29   45 1
  50   30   31 1
  51   30   46 1
  52   30   47 1

#	End of record

