#	Name: ASD01915175
#	Creating user name:	WinNT
#	Creation time:	15. 06. 2019 20:05

#	Modifying user name:	WinNT
#	Modification time:	15. 06. 2019 20:05

#	Program:	/corina/corina34_cracker 3.40 0067  02.08.2006

@<TRIPOS>MOLECULE
ASD01915175
  40   42    0    0    0
SMALL
NO_CHARGES


@<TRIPOS>ATOM
   1 C1             0.1778     1.3830     0.7915 C.ar    
   2 C2             0.2452     0.0078     0.9186 C.ar    
   3 C3             1.4385    -0.6472     0.6882 C.ar    
   4 C4             2.5709     0.0753     0.3295 C.ar    
   5 C5             2.5017     1.4539     0.1990 C.ar    
   6 C6             1.3013     2.1029     0.4331 C.ar    
   7 N7             3.7728    -0.6064     0.1095 N.am    
   8 C8             4.8798     0.0996    -0.5499 C.3     
   9 C9             4.9918     1.4924     0.0837 C.3     
  10 C10            3.7049     2.2679    -0.1977 C.3     
  11 C11            6.1648    -0.6600    -0.3429 C.2     
  12 O12            6.8408    -0.4510     0.6420 O.2     
  13 N13            6.5628    -1.5715    -1.2524 N.am    
  14 C14            7.7942    -2.2088    -1.1078 C.ar    
  15 C15            8.2471    -3.0659    -2.1039 C.ar    
  16 C16            9.4714    -3.6921    -1.9477 C.ar    
  17 C17           10.2029    -3.4381    -0.7958 C.ar    
  18 C18            9.6916    -2.5746     0.1532 C.ar    
  19 N19            8.5238    -1.9879    -0.0256 N.ar    
  20 S20            3.9451    -2.1832     0.5852 S.o2    
  21 O21            5.3333    -2.3175     0.8574 O.2     
  22 O22            2.9778    -2.3469     1.6131 O.2     
  23 C23            3.4872    -3.1504    -0.8796 C.3     
  24 H24           -0.7564     1.8952     0.9686 H       
  25 H25           -0.6344    -0.5531     1.1980 H       
  26 H26            1.4925    -1.7214     0.7871 H       
  27 H27            1.2428     3.1768     0.3349 H       
  28 H28            4.6740     0.1946    -1.6161 H       
  29 H29            5.1307     1.3938     1.1603 H       
  30 H30            5.8400     2.0232    -0.3487 H       
  31 H31            3.6489     2.4991    -1.2614 H       
  32 H32            3.7135     3.1984     0.3701 H       
  33 H33            5.9924    -1.7841    -2.0077 H       
  34 H34            7.6516    -3.2411    -2.9876 H       
  35 H35            9.8489    -4.3635    -2.7047 H       
  36 H36           11.1618    -3.9110    -0.6430 H       
  37 H37           10.2571    -2.3739     1.0511 H       
  38 H38            4.2397    -3.0125    -1.6559 H       
  39 H39            3.4283    -4.2060    -0.6141 H       
  40 H40            2.5184    -2.8140    -1.2488 H       
@<TRIPOS>BOND
   1    1    2 ar
   2    1    6 ar
   3    1   24 1
   4    2    3 ar
   5    2   25 1
   6    3    4 ar
   7    3   26 1
   8    4    5 ar
   9    4    7 1
  10    5    6 ar
  11    5   10 1
  12    6   27 1
  13    7    8 1
  14    7   20 am
  15    8    9 1
  16    8   11 1
  17    8   28 1
  18    9   10 1
  19    9   29 1
  20    9   30 1
  21   10   31 1
  22   10   32 1
  23   11   12 2
  24   11   13 am
  25   13   14 1
  26   13   33 1
  27   14   15 ar
  28   14   19 ar
  29   15   16 ar
  30   15   34 1
  31   16   17 ar
  32   16   35 1
  33   17   18 ar
  34   17   36 1
  35   18   19 ar
  36   18   37 1
  37   20   21 2
  38   20   22 2
  39   20   23 1
  40   23   38 1
  41   23   39 1
  42   23   40 1

#	End of record

