#	Name: ASD01915307
#	Creating user name:	WinNT
#	Creation time:	15. 06. 2019 20:05

#	Modifying user name:	WinNT
#	Modification time:	15. 06. 2019 20:05

#	Program:	/corina/corina34_cracker 3.40 0067  02.08.2006

@<TRIPOS>MOLECULE
ASD01915307
  44   47    0    0    0
SMALL
NO_CHARGES


@<TRIPOS>ATOM
   1 N1             0.0250     1.3221    -0.0221 N.2     
   2 C2             0.0738    -0.0289    -0.0517 C.2     
   3 N3             1.3362    -0.3692    -0.0700 N.2     
   4 O4             2.0353     0.6217    -0.0545 O.3     
   5 C5             1.2730     1.7193    -0.0242 C.2     
   6 C6             1.7584     3.1458     0.0017 C.3     
   7 C7            -1.0880    -0.9525    -0.0609 C.ar    
   8 C8            -0.8854    -2.3304    -0.0926 C.ar    
   9 C9            -1.9695    -3.1848    -0.1006 C.ar    
  10 C10           -3.2550    -2.6753    -0.0776 C.ar    
  11 C11           -3.4619    -1.3078    -0.0462 C.ar    
  12 C12           -2.3853    -0.4446    -0.0322 C.ar    
  13 N13            2.8764     3.2764     0.9475 N.am    
  14 C14            4.0744     3.7111     0.2062 C.3     
  15 C15            3.5239     4.4211    -1.0557 C.3     
  16 C16            2.2879     3.5454    -1.3917 C.3     
  17 C17            2.8160     3.0389     2.2728 C.2     
  18 O18            1.7478     2.7837     2.7971 O.2     
  19 C19            4.0368     3.0880     3.0826 C.2     
  20 C20           -1.7519    -4.6757    -0.1348 C.3     
  21 C21            4.0897     2.9845     4.4441 C.2     
  22 C22            5.3670     3.0633     4.9462 C.2     
  23 C23            6.3282     3.2257     4.0296 C.2     
  24 S24            5.6686     3.2819     2.4570 S.3     
  25 C25            7.7978     3.3381     4.3438 C.3     
  26 H26            0.9447     3.8088     0.2957 H       
  27 H27            0.1181    -2.7293    -0.1112 H       
  28 H28           -4.1004    -3.3473    -0.0847 H       
  29 H29           -4.4679    -0.9151    -0.0287 H       
  30 H30           -2.5480     0.6228    -0.0072 H       
  31 H31            4.6609     4.4061     0.8071 H       
  32 H32            4.6788     2.8493    -0.0767 H       
  33 H33            3.2272     5.4453    -0.8296 H       
  34 H34            4.2519     4.3969    -1.8666 H       
  35 H35            2.5832     2.6632    -1.9596 H       
  36 H36            1.5419     4.1241    -1.9364 H       
  37 H37           -1.6896    -5.0572     0.8843 H       
  38 H38           -2.5850    -5.1527    -0.6510 H       
  39 H39           -0.8238    -4.8954    -0.6624 H       
  40 H40            3.2150     2.8541     5.0640 H       
  41 H41            5.5791     2.9992     6.0032 H       
  42 H42            8.2474     2.3452     4.3388 H       
  43 H43            8.2835     3.9607     3.5924 H       
  44 H44            7.9255     3.7898     5.3276 H       
@<TRIPOS>BOND
   1    1    2 1
   2    1    5 2
   3    2    3 2
   4    2    7 1
   5    3    4 1
   6    4    5 1
   7    5    6 1
   8    6   13 1
   9    6   16 1
  10    6   26 1
  11    7    8 ar
  12    7   12 ar
  13    8    9 ar
  14    8   27 1
  15    9   10 ar
  16    9   20 1
  17   10   11 ar
  18   10   28 1
  19   11   12 ar
  20   11   29 1
  21   12   30 1
  22   13   14 1
  23   13   17 am
  24   14   15 1
  25   14   31 1
  26   14   32 1
  27   15   16 1
  28   15   33 1
  29   15   34 1
  30   16   35 1
  31   16   36 1
  32   17   18 2
  33   17   19 1
  34   19   21 2
  35   19   24 1
  36   20   37 1
  37   20   38 1
  38   20   39 1
  39   21   22 1
  40   21   40 1
  41   22   23 2
  42   22   41 1
  43   23   24 1
  44   23   25 1
  45   25   42 1
  46   25   43 1
  47   25   44 1

#	End of record

