#	Name: ASD00170001
#	Creating user name:	WinNT
#	Creation time:	15. 06. 2019 18:31

#	Modifying user name:	WinNT
#	Modification time:	15. 06. 2019 18:31

#	Program:	/corina/corina34_cracker 3.40 0067  02.08.2006

@<TRIPOS>MOLECULE
ASD00170001
  43   45    0    0    0
SMALL
NO_CHARGES


@<TRIPOS>ATOM
   1 C1            -1.0260    -0.4890     2.4763 C.ar    
   2 C2            -0.5180    -0.9645     1.2858 C.ar    
   3 C3             0.7003    -1.6460     1.2726 C.ar    
   4 C4             1.3973    -1.8418     2.4664 C.ar    
   5 C5             0.8792    -1.3617     3.6507 C.ar    
   6 C6            -0.3300    -0.6862     3.6575 C.ar    
   7 C7             1.2503    -2.1590    -0.0007 C.2     
   8 C8             2.5790    -2.7698    -0.0302 C.2     
   9 O9             0.5969    -2.0728    -1.0247 O.2     
  10 Cl10          -0.9759    -0.0846     5.1524 Cl      
  11 C11            2.8121    -4.1914     0.1139 C.2     
  12 C12            4.0936    -4.5184     0.0557 C.2     
  13 S13            5.0931    -3.0959    -0.1801 S.3     
  14 C14            3.7424    -2.0565    -0.2036 C.2     
  15 N15            3.8075    -0.6876    -0.3668 N.pl3   
  16 C16            1.7074    -5.1974     0.3107 C.3     
  17 N17            1.0848    -5.5008    -0.9848 N.3     
  18 C18            0.1692    -6.6449    -0.8741 C.3     
  19 C19           -0.5170    -6.8780    -2.2221 C.3     
  20 N20            0.5024    -7.1209    -3.2523 N.3     
  21 C21            1.4181    -5.9768    -3.3630 C.3     
  22 C22            2.1043    -5.7437    -2.0150 C.3     
  23 C23           -0.1201    -7.4242    -4.5478 C.3     
  24 H24           -1.9663     0.0423     2.4871 H       
  25 H25           -1.0618    -0.8104     0.3655 H       
  26 H26            2.3401    -2.3686     2.4623 H       
  27 H27            1.4173    -1.5128     4.5748 H       
  28 H28            4.4731    -5.5258     0.1424 H       
  29 H29            4.6693    -0.2434    -0.3989 H       
  30 H30            2.9916    -0.1697    -0.4495 H       
  31 H31            2.1200    -6.1112     0.7384 H       
  32 H32            0.9577    -4.7862     0.9867 H       
  33 H33            0.7319    -7.5353    -0.5937 H       
  34 H34           -0.5837    -6.4359    -0.1141 H       
  35 H35           -1.1750    -7.7441    -2.1503 H       
  36 H36           -1.1018    -5.9979    -2.4895 H       
  37 H37            2.1710    -6.1858    -4.1230 H       
  38 H38            0.8553    -5.0864    -3.6434 H       
  39 H39            2.7622    -4.8776    -2.0868 H       
  40 H40            2.6891    -6.6238    -1.7476 H       
  41 H41           -0.7386    -6.5826    -4.8597 H       
  42 H42            0.6567    -7.5997    -5.2920 H       
  43 H43           -0.7404    -8.3155    -4.4530 H       
@<TRIPOS>BOND
   1    1    2 ar
   2    1    6 ar
   3    1   24 1
   4    2    3 ar
   5    2   25 1
   6    3    4 ar
   7    3    7 1
   8    4    5 ar
   9    4   26 1
  10    5    6 ar
  11    5   27 1
  12    6   10 1
  13    7    8 1
  14    7    9 2
  15    8   11 1
  16    8   14 2
  17   11   12 2
  18   11   16 1
  19   12   13 1
  20   12   28 1
  21   13   14 1
  22   14   15 1
  23   15   29 1
  24   15   30 1
  25   16   17 1
  26   16   31 1
  27   16   32 1
  28   17   18 1
  29   17   22 1
  30   18   19 1
  31   18   33 1
  32   18   34 1
  33   19   20 1
  34   19   35 1
  35   19   36 1
  36   20   21 1
  37   20   23 1
  38   21   22 1
  39   21   37 1
  40   21   38 1
  41   22   39 1
  42   22   40 1
  43   23   41 1
  44   23   42 1
  45   23   43 1

#	End of record

