#	Name: ASD02448180
#	Creating user name:	WinNT
#	Creation time:	15. 06. 2019 20:22

#	Modifying user name:	WinNT
#	Modification time:	15. 06. 2019 20:22

#	Program:	/corina/corina34_cracker 3.40 0067  02.08.2006

@<TRIPOS>MOLECULE
ASD02448180
  78   84    0    0    0
SMALL
NO_CHARGES


@<TRIPOS>ATOM
   1 C1             3.3180    -7.4085    -1.1008 C.ar    
   2 C2             2.8026    -6.2970    -0.4647 C.ar    
   3 C3             2.1987    -5.2904    -1.2059 C.ar    
   4 C4             2.1124    -5.4014    -2.5871 C.ar    
   5 C5             2.6275    -6.5125    -3.2240 C.ar    
   6 C6             3.2322    -7.5197    -2.4828 C.ar    
   7 N7             3.7544    -8.6451    -3.1275 N.am    
   8 C8             4.8249    -9.5364    -2.6619 C.3     
   9 C9             5.0892   -10.6291    -3.6469 C.2     
  10 N10            4.3201   -10.5941    -4.7442 N.am    
  11 S11            3.2994    -9.2873    -4.5985 S.o2    
  12 O12            5.9338   -11.4808    -3.4674 O.2     
  13 O13            1.9818    -9.7988    -4.4513 O.2     
  14 O14            3.6782    -8.3463    -5.5937 O.2     
  15 N15            1.6749    -4.1605    -0.5588 N.pl3   
  16 C16            0.7438    -4.1588     0.4448 C.2     
  17 C17            2.0020    -2.8656    -0.8079 C.2     
  18 N18            1.3136    -2.0960    -0.0117 N.2     
  19 C19            0.5272    -2.8586     0.7745 C.2     
  20 C20           -0.4085    -2.3655     1.8149 C.ar    
  21 C21           -0.5332    -0.9966     2.0520 C.ar    
  22 C22           -1.1699    -3.2678     2.5546 C.ar    
  23 C23           -2.0390    -2.8043     3.5215 C.ar    
  24 C24           -2.1553    -1.4453     3.7573 C.ar    
  25 C25           -1.4057    -0.5434     3.0216 C.ar    
  26 Cl26          -3.2509    -0.8694     4.9746 Cl      
  27 Cl27           0.4069     0.1350     1.1303 Cl      
  28 C28            2.9983    -2.3956    -1.8363 C.3     
  29 C29            4.3370    -2.1821    -1.1780 C.ar    
  30 C30            5.2091    -3.2594    -1.0310 C.ar    
  31 C31            4.6783    -0.9392    -0.7409 C.ar    
  32 C32            5.9258    -0.7361    -0.1265 C.ar    
  33 C33            6.8106    -1.8329     0.0283 C.ar    
  34 C34            6.4250    -3.1009    -0.4407 C.ar    
  35 C35            6.3119     0.5336     0.3364 C.ar    
  36 C36            7.5267     0.6958     0.9263 C.ar    
  37 C37            8.4010    -0.3843     1.0801 C.ar    
  38 C38            8.0576    -1.6317     0.6416 C.ar    
  39 O39            9.6082    -0.1907     1.6730 O.3     
  40 C40            9.9109     1.1357     2.1103 C.3     
  41 C41           11.3015     1.1575     2.7479 C.3     
  42 C42           11.6772     2.5975     3.1031 C.3     
  43 C43           13.0678     2.6194     3.7407 C.3     
  44 C44           13.0600     1.7663     5.0108 C.3     
  45 C45           12.6844     0.3263     4.6556 C.3     
  46 C46           11.2937     0.3044     4.0180 C.3     
  47 H47            3.7917    -8.1894    -0.5245 H       
  48 H48            2.8689    -6.2106     0.6098 H       
  49 H49            1.6419    -4.6184    -3.1633 H       
  50 H50            2.5600    -6.5990    -4.2984 H       
  51 H51            5.7363    -8.9557    -2.5198 H       
  52 H52            4.5328    -9.9776    -1.7090 H       
  53 H53            4.3508   -11.2180    -5.4863 H       
  54 H54            0.2727    -5.0235     0.8885 H       
  55 H55           -1.0804    -4.3284     2.3715 H       
  56 H56           -2.6297    -3.5032     4.0950 H       
  57 H57           -1.5000     0.5160     3.2095 H       
  58 H58            3.0944    -3.1476    -2.6194 H       
  59 H59            2.6546    -1.4580    -2.2732 H       
  60 H60            4.9154    -4.2345    -1.3906 H       
  61 H61            3.9941    -0.1131    -0.8660 H       
  62 H62            7.0885    -3.9457    -0.3294 H       
  63 H63            5.6468     1.3770     0.2240 H       
  64 H64            7.8203     1.6730     1.2805 H       
  65 H65            8.7414    -2.4583     0.7660 H       
  66 H66            9.8920     1.8129     1.2565 H       
  67 H67            9.1700     1.4545     2.8435 H       
  68 H68           12.0302     0.7549     2.0443 H       
  69 H69           11.6828     3.2053     2.1982 H       
  70 H70           10.9485     3.0001     3.8067 H       
  71 H71           13.7965     2.2168     3.0371 H       
  72 H72           13.3355     3.6453     3.9937 H       
  73 H73           14.0507     1.7819     5.4650 H       
  74 H74           12.3313     2.1689     5.7144 H       
  75 H75           13.4130    -0.0763     3.9520 H       
  76 H76           12.6788    -0.2814     5.5605 H       
  77 H77           10.5650     0.7070     4.7216 H       
  78 H78           11.0261    -0.7215     3.7650 H       
@<TRIPOS>BOND
   1    1    2 ar
   2    1    6 ar
   3    1   47 1
   4    2    3 ar
   5    2   48 1
   6    3    4 ar
   7    3   15 1
   8    4    5 ar
   9    4   49 1
  10    5    6 ar
  11    5   50 1
  12    6    7 1
  13    7    8 1
  14    7   11 am
  15    8    9 1
  16    8   51 1
  17    8   52 1
  18    9   10 am
  19    9   12 2
  20   10   11 am
  21   10   53 1
  22   11   13 2
  23   11   14 2
  24   15   16 1
  25   15   17 1
  26   16   19 2
  27   16   54 1
  28   17   18 2
  29   17   28 1
  30   18   19 1
  31   19   20 1
  32   20   21 ar
  33   20   22 ar
  34   21   27 1
  35   21   25 ar
  36   22   23 ar
  37   22   55 1
  38   23   24 ar
  39   23   56 1
  40   24   25 ar
  41   24   26 1
  42   25   57 1
  43   28   29 1
  44   28   58 1
  45   28   59 1
  46   29   30 ar
  47   29   31 ar
  48   30   34 ar
  49   30   60 1
  50   31   32 ar
  51   31   61 1
  52   32   33 ar
  53   32   35 ar
  54   33   34 ar
  55   33   38 ar
  56   34   62 1
  57   35   36 ar
  58   35   63 1
  59   36   37 ar
  60   36   64 1
  61   37   38 ar
  62   37   39 1
  63   38   65 1
  64   39   40 1
  65   40   41 1
  66   40   66 1
  67   40   67 1
  68   41   42 1
  69   41   46 1
  70   41   68 1
  71   42   43 1
  72   42   69 1
  73   42   70 1
  74   43   44 1
  75   43   71 1
  76   43   72 1
  77   44   45 1
  78   44   73 1
  79   44   74 1
  80   45   46 1
  81   45   75 1
  82   45   76 1
  83   46   77 1
  84   46   78 1

#	End of record

