#	Name: ASD01410216
#	Creating user name:	WinNT
#	Creation time:	15. 06. 2019 19:17

#	Modifying user name:	WinNT
#	Modification time:	15. 06. 2019 19:17

#	Program:	/corina/corina34_cracker 3.40 0067  02.08.2006

@<TRIPOS>MOLECULE
ASD01410216
  47   49    0    0    0
SMALL
NO_CHARGES


@<TRIPOS>ATOM
   1 C1            -0.0163     1.3475     0.0095 C.2     
   2 C2             0.0021    -0.0041     0.0020 C.2     
   3 C3            -1.3321    -0.4376     0.0133 C.2     
   4 C4            -2.1146     0.7003     0.0274 C.2     
   5 O5            -1.2891     1.7679     0.0297 O.3     
   6 C6            -4.1759     1.9388     0.0546 C.2     
   7 S7            -3.4708     3.5687     0.0561 S.3     
   8 C8            -5.0402     4.3930     0.0687 C.2     
   9 N9            -5.9628     3.4599     0.0710 N.2     
  10 C10           -5.6233     2.1888     0.0644 C.2     
  11 C11           -3.5274     0.7396     0.0415 C.2     
  12 O12           -6.4473     1.2871     0.0659 O.2     
  13 N13           -5.2500     5.7478     0.0749 N.pl3   
  14 C14           -6.6159     6.2774     0.0851 C.3     
  15 C15            1.1990     2.2387     0.0026 C.3     
  16 C16            1.5965     2.5480    -1.4421 C.3     
  17 C17           -8.0446     8.2475     0.7169 C.3     
  18 C18           -6.6150     7.6785     0.6998 C.3     
  19 C19           -6.1500     7.6107     2.1691 C.3     
  20 C20           -7.0244     8.6642     2.8933 C.3     
  21 C21           -8.3984     8.5055     2.1961 C.3     
  22 C22           -5.6931     8.6015    -0.0996 C.3     
  23 C23           -7.1377     6.3486    -1.3269 C.2     
  24 O24           -6.4402     5.9934    -2.2473 O.2     
  25 O25           -8.3773     6.8066    -1.5620 O.3     
  26 H26            0.8800    -0.6329    -0.0108 H       
  27 H27           -1.6791    -1.4603     0.0108 H       
  28 H28           -4.0933    -0.1803     0.0420 H       
  29 H29           -4.4941     6.3556     0.0724 H       
  30 H30           -7.2554     5.6218     0.6762 H       
  31 H31            0.9707     3.1685     0.5237 H       
  32 H32            2.0231     1.7331     0.5059 H       
  33 H33            2.4755     3.1926    -1.4470 H       
  34 H34            1.8248     1.6182    -1.9631 H       
  35 H35            0.7724     3.0536    -1.9454 H       
  36 H36           -8.0816     9.1812     0.1558 H       
  37 H37           -8.7390     7.5254     0.2874 H       
  38 H38           -6.3300     6.6175     2.5807 H       
  39 H39           -5.0946     7.8717     2.2477 H       
  40 H40           -7.1021     8.4369     3.9565 H       
  41 H41           -6.6270     9.6675     2.7398 H       
  42 H42           -8.9839     9.4197     2.2944 H       
  43 H43           -8.9415     7.6569     2.6121 H       
  44 H44           -5.6800     9.5894     0.3608 H       
  45 H45           -4.6837     8.1902    -0.1059 H       
  46 H46           -6.0588     8.6825    -1.1232 H       
  47 H47           -8.6678     6.8337    -2.4839 H       
@<TRIPOS>BOND
   1    1    2 2
   2    1   15 1
   3    1    5 1
   4    2    3 1
   5    2   26 1
   6    3    4 2
   7    3   27 1
   8    4    5 1
   9    4   11 1
  10    6    7 1
  11    6   10 1
  12    6   11 2
  13    7    8 1
  14    8    9 2
  15    8   13 1
  16    9   10 1
  17   10   12 2
  18   11   28 1
  19   13   14 1
  20   13   29 1
  21   14   23 1
  22   14   18 1
  23   14   30 1
  24   15   16 1
  25   15   31 1
  26   15   32 1
  27   16   33 1
  28   16   34 1
  29   16   35 1
  30   17   18 1
  31   17   21 1
  32   17   36 1
  33   17   37 1
  34   18   19 1
  35   18   22 1
  36   19   20 1
  37   19   38 1
  38   19   39 1
  39   20   21 1
  40   20   40 1
  41   20   41 1
  42   21   42 1
  43   21   43 1
  44   22   44 1
  45   22   45 1
  46   22   46 1
  47   23   24 2
  48   23   25 1
  49   25   47 1

#	End of record

