#	Name: ASD08151008
#	Creating user name:	WinNT
#	Creation time:	15. 06. 2019 21:16

#	Modifying user name:	WinNT
#	Modification time:	15. 06. 2019 21:16

#	Program:	/corina/corina34_cracker 3.40 0067  02.08.2006

@<TRIPOS>MOLECULE
ASD08151008
  38   40    0    0    0
SMALL
NO_CHARGES


@<TRIPOS>ATOM
   1 N1             0.3748     1.1908     0.2291 N.ar    
   2 C2             0.4647    -0.1064     0.3965 C.ar    
   3 C3             1.6666    -0.7172     0.7490 C.ar    
   4 C4             2.7887     0.0407     0.9284 C.ar    
   5 C5             2.6868     1.4335     0.7474 C.ar    
   6 C6             3.8036     2.2709     0.9167 C.ar    
   7 C7             3.6869     3.6127     0.7379 C.ar    
   8 C8             2.4566     4.1880     0.3830 C.ar    
   9 C9             1.3257     3.3865     0.2064 C.ar    
  10 C10            1.4339     1.9872     0.3893 C.ar    
  11 C11            2.3568     5.6487     0.1958 C.2     
  12 O12            1.4113     6.2576     0.6577 O.2     
  13 N13            3.3139     6.3075    -0.4873 N.am    
  14 C14            3.1551     7.7343    -0.7791 C.3     
  15 O15            4.4730     5.6205    -0.9227 O.3     
  16 C16            4.3945     5.1422    -2.2670 C.3     
  17 C17            0.0300     3.9937    -0.1674 C.ar    
  18 C18           -0.5506     3.7003    -1.4022 C.ar    
  19 C19           -1.7617     4.2701    -1.7462 C.ar    
  20 C20           -2.3992     5.1315    -0.8681 C.ar    
  21 C21           -1.8273     5.4262     0.3590 C.ar    
  22 C22           -0.6194     4.8576     0.7156 C.ar    
  23 F23           -2.4541     6.2674     1.2103 F       
  24 F24           -2.3249     3.9870    -2.9411 F       
  25 H25           -0.4152    -0.7172     0.2581 H       
  26 H26            1.7107    -1.7882     0.8804 H       
  27 H27            3.7284    -0.4158     1.2020 H       
  28 H28            4.7579     1.8458     1.1903 H       
  29 H29            4.5522     4.2452     0.8709 H       
  30 H30            3.5858     8.3212     0.0321 H       
  31 H31            3.6661     7.9735    -1.7117 H       
  32 H32            2.0951     7.9697    -0.8749 H       
  33 H33            4.2459     5.9835    -2.9439 H       
  34 H34            5.3205     4.6279    -2.5244 H       
  35 H35            3.5572     4.4502    -2.3581 H       
  36 H36           -0.0542     3.0295    -2.0877 H       
  37 H37           -3.3452     5.5751    -1.1412 H       
  38 H38           -0.1765     5.0848     1.6741 H       
@<TRIPOS>BOND
   1    1    2 ar
   2    1   10 ar
   3    2    3 ar
   4    2   25 1
   5    3    4 ar
   6    3   26 1
   7    4    5 ar
   8    4   27 1
   9    5    6 ar
  10    5   10 ar
  11    6    7 ar
  12    6   28 1
  13    7    8 ar
  14    7   29 1
  15    8    9 ar
  16    8   11 1
  17    9   10 ar
  18    9   17 1
  19   11   12 2
  20   11   13 am
  21   13   14 1
  22   13   15 1
  23   14   30 1
  24   14   31 1
  25   14   32 1
  26   15   16 1
  27   16   33 1
  28   16   34 1
  29   16   35 1
  30   17   18 ar
  31   17   22 ar
  32   18   19 ar
  33   18   36 1
  34   19   20 ar
  35   19   24 1
  36   20   21 ar
  37   20   37 1
  38   21   22 ar
  39   21   23 1
  40   22   38 1

#	End of record

