#	Name: ASD09116323
#	Creating user name:	WinNT
#	Creation time:	15. 06. 2019 21:21

#	Modifying user name:	WinNT
#	Modification time:	15. 06. 2019 21:21

#	Program:	/corina/corina34_cracker 3.40 0067  02.08.2006

@<TRIPOS>MOLECULE
ASD09116323
  78   84    0    0    0
SMALL
NO_CHARGES


@<TRIPOS>ATOM
   1 N1            -0.0591     1.5278    -0.5295 N.2     
   2 N2            -0.0825     0.2496    -1.1106 N.pl3   
   3 C3             1.1940     1.9123    -0.4994 C.2     
   4 N4             1.9611     0.9512    -1.0274 N.2     
   5 C5             1.2089    -0.0610    -1.4024 C.2     
   6 N6             1.6522    -1.2313    -1.9874 N.pl3   
   7 C7            -1.2045    -0.5424    -1.3414 C.ar    
   8 N8             1.6542     3.1294     0.0024 N.pl3   
   9 C9             3.0298     3.3781     0.0834 C.ar    
  10 C10            3.5081     4.6779    -0.0242 C.ar    
  11 C11            3.9151     2.3263     0.2769 C.ar    
  12 C12            5.2726     2.5708     0.3574 C.ar    
  13 C13            5.7523     3.8679     0.2444 C.ar    
  14 C14            4.8658     4.9230     0.0558 C.ar    
  15 N15           -2.3983    -0.0843    -0.9933 N.ar    
  16 C16           -3.4799    -0.8220    -1.2041 C.ar    
  17 C17           -3.3496    -2.0721    -1.8124 C.ar    
  18 C18           -2.0877    -2.5158    -2.1508 C.ar    
  19 N19           -1.0485    -1.7292    -1.9071 N.ar    
  20 N20            7.1292     4.1155     0.3266 N.3     
  21 C21            9.1168     4.1857     1.7566 C.3     
  22 C22            7.6479     3.7683     1.6558 C.3     
  23 F23            5.3323     6.1861    -0.0547 F       
  24 C24           -4.8278    -0.3747    -0.7873 C.ar    
  25 C25           -5.6313    -1.2503    -0.0545 C.ar    
  26 C26           -5.0868    -2.5965     0.3372 C.3     
  27 C27           -5.0948    -3.5661    -0.8417 C.3     
  28 C28           -4.5770    -2.8857    -2.1057 C.3     
  29 C29           -5.2994     0.8913    -1.1165 C.ar    
  30 C30           -6.5712     1.2688    -0.7312 C.ar    
  31 C31           -7.3718     0.3905    -0.0236 C.ar    
  32 C32           -6.9029    -0.8674     0.3138 C.ar    
  33 C33            7.8563     3.4010    -0.7304 C.3     
  34 C34            9.3314     3.8075    -0.7009 C.3     
  35 C35            9.9221     3.4675     0.6703 C.3     
  36 C36           11.3804     3.9269     0.7269 C.3     
  37 C37           11.9695     3.5866     2.0974 C.3     
  38 C38           13.4278     4.0460     2.1540 C.3     
  39 C39           14.2297     3.3335     1.0631 C.3     
  40 C40           13.6406     3.6738    -0.3074 C.3     
  41 C41           12.1823     3.2144    -0.3640 C.3     
  42 H42            2.5986    -1.3610    -2.1561 H       
  43 H43            1.0171    -1.9234    -2.2294 H       
  44 H44            1.0214     3.8037     0.2952 H       
  45 H45            2.8191     5.4966    -0.1707 H       
  46 H46            3.5424     1.3165     0.3649 H       
  47 H47            5.9605     1.7521     0.5086 H       
  48 H48           -1.9495    -3.4840    -2.6091 H       
  49 H49            9.1991     5.2637     1.6178 H       
  50 H50            9.5059     3.9138     2.7378 H       
  51 H51            7.0692     4.2889     2.4188 H       
  52 H52            7.5648     2.6923     1.8084 H       
  53 H53           -4.0637    -2.4772     0.6937 H       
  54 H54           -5.6974    -3.0078     1.1410 H       
  55 H55           -4.4592    -4.4202    -0.6079 H       
  56 H56           -6.1134    -3.9141    -1.0131 H       
  57 H57           -5.3530    -2.2323    -2.5044 H       
  58 H58           -4.3338    -3.6460    -2.8479 H       
  59 H59           -4.6745     1.5762    -1.6704 H       
  60 H60           -6.9409     2.2519    -0.9827 H       
  61 H61           -8.3685     0.6879     0.2673 H       
  62 H62           -7.5334    -1.5485     0.8660 H       
  63 H63            7.7723     2.3267    -0.5666 H       
  64 H64            7.4290     3.6549    -1.7005 H       
  65 H65            9.8739     3.2653    -1.4754 H       
  66 H66            9.4171     4.8795    -0.8783 H       
  67 H67            9.8719     2.3906     0.8316 H       
  68 H68           11.4284     5.0042     0.5682 H       
  69 H69           11.3982     4.0942     2.8746 H       
  70 H70           11.9215     2.5093     2.2561 H       
  71 H71           13.4757     5.1233     1.9953 H       
  72 H72           13.8474     3.8035     3.1304 H       
  73 H73           15.2686     3.6608     1.1034 H       
  74 H74           14.1817     2.2562     1.2218 H       
  75 H75           13.6886     4.7511    -0.4661 H       
  76 H76           14.2119     3.1662    -1.0846 H       
  77 H77           12.1344     2.1371    -0.2053 H       
  78 H78           11.7627     3.4568    -1.3404 H       
@<TRIPOS>BOND
   1    1    2 1
   2    1    3 2
   3    2    7 1
   4    2    5 1
   5    3    4 1
   6    3    8 1
   7    4    5 2
   8    5    6 1
   9    6   42 1
  10    6   43 1
  11    7   15 ar
  12    7   19 ar
  13    8    9 1
  14    8   44 1
  15    9   10 ar
  16    9   11 ar
  17   10   14 ar
  18   10   45 1
  19   11   12 ar
  20   11   46 1
  21   12   13 ar
  22   12   47 1
  23   13   14 ar
  24   13   20 1
  25   14   23 1
  26   15   16 ar
  27   16   17 ar
  28   16   24 1
  29   17   18 ar
  30   17   28 1
  31   18   19 ar
  32   18   48 1
  33   20   33 1
  34   20   22 1
  35   21   22 1
  36   21   35 1
  37   21   49 1
  38   21   50 1
  39   22   51 1
  40   22   52 1
  41   24   25 ar
  42   24   29 ar
  43   25   26 1
  44   25   32 ar
  45   26   27 1
  46   26   53 1
  47   26   54 1
  48   27   28 1
  49   27   55 1
  50   27   56 1
  51   28   57 1
  52   28   58 1
  53   29   30 ar
  54   29   59 1
  55   30   31 ar
  56   30   60 1
  57   31   32 ar
  58   31   61 1
  59   32   62 1
  60   33   34 1
  61   33   63 1
  62   33   64 1
  63   34   35 1
  64   34   65 1
  65   34   66 1
  66   35   36 1
  67   35   67 1
  68   36   37 1
  69   36   41 1
  70   36   68 1
  71   37   38 1
  72   37   69 1
  73   37   70 1
  74   38   39 1
  75   38   71 1
  76   38   72 1
  77   39   40 1
  78   39   73 1
  79   39   74 1
  80   40   41 1
  81   40   75 1
  82   40   76 1
  83   41   77 1
  84   41   78 1

#	End of record

