#	Name: ASD04550010
#	Creating user name:	WinNT
#	Creation time:	15. 06. 2019 20:49

#	Modifying user name:	WinNT
#	Modification time:	15. 06. 2019 20:49

#	Program:	/corina/corina34_cracker 3.40 0067  02.08.2006

@<TRIPOS>MOLECULE
ASD04550010
  34   35    0    0    0
SMALL
NO_CHARGES


@<TRIPOS>ATOM
   1 C1            -0.0167     1.3781     0.0096 C.ar    
   2 C2             0.0021    -0.0041     0.0020 C.ar    
   3 C3             1.2084    -0.6789    -0.0132 C.ar    
   4 C4             2.3960     0.0285    -0.0212 C.ar    
   5 C5             2.3773     1.4107    -0.0145 C.ar    
   6 C6             1.1710     2.0855     0.0021 C.ar    
   7 C7            -1.2926    -0.7753     0.0108 C.3     
   8 C8             3.6720     2.1819    -0.0228 C.3     
   9 C9             3.7296     3.0684    -1.2685 C.3     
  10 C10           -1.7452    -1.0285    -1.4286 C.3     
  11 C11           -2.9968    -1.9157    -1.5338 C.3     
  12 C12           -3.4671    -0.9828    -2.6623 C.3     
  13 C13           -2.5981     0.1087    -2.0153 C.3     
  14 C14            3.7514     3.0435     1.2111 C.2     
  15 O15            2.8492     3.0325     2.0147 O.2     
  16 O16            4.8244     3.8232     1.4173 O.3     
  17 H17           -0.9592     1.9054     0.0170 H       
  18 H18            1.2231    -1.7588    -0.0184 H       
  19 H19            3.3386    -0.4987    -0.0324 H       
  20 H20            1.1563     3.1654     0.0069 H       
  21 H21           -1.1443    -1.7285     0.5181 H       
  22 H22           -2.0550    -0.1993     0.5353 H       
  23 H23            4.5100     1.4850    -0.0338 H       
  24 H24            3.6722     2.4453    -2.1609 H       
  25 H25            2.8916     3.7654    -1.2575 H       
  26 H26            4.6661     3.6262    -1.2744 H       
  27 H27           -0.9298    -1.3448    -2.0792 H       
  28 H28           -2.7851    -2.9317    -1.8670 H       
  29 H29           -3.6308    -1.8832    -0.6477 H       
  30 H30           -3.1230    -1.2858    -3.6512 H       
  31 H31           -4.5348    -0.7655    -2.6327 H       
  32 H32           -3.1231     0.6946    -1.2609 H       
  33 H33           -2.0645     0.7269    -2.7372 H       
  34 H34            4.8300     4.3581     2.2229 H       
@<TRIPOS>BOND
   1    1    2 ar
   2    1    6 ar
   3    1   17 1
   4    2    3 ar
   5    2    7 1
   6    3    4 ar
   7    3   18 1
   8    4    5 ar
   9    4   19 1
  10    5    6 ar
  11    5    8 1
  12    6   20 1
  13    7   10 1
  14    7   21 1
  15    7   22 1
  16    8    9 1
  17    8   14 1
  18    8   23 1
  19    9   24 1
  20    9   25 1
  21    9   26 1
  22   10   11 1
  23   10   13 1
  24   10   27 1
  25   11   12 1
  26   11   28 1
  27   11   29 1
  28   12   13 1
  29   12   30 1
  30   12   31 1
  31   13   32 1
  32   13   33 1
  33   14   15 2
  34   14   16 1
  35   16   34 1

#	End of record

