#	Name: ASD06660129
#	Creating user name:	WinNT
#	Creation time:	15. 06. 2019 21:08

#	Modifying user name:	WinNT
#	Modification time:	15. 06. 2019 21:08

#	Program:	/corina/corina34_cracker 3.40 0067  02.08.2006

@<TRIPOS>MOLECULE
ASD06660129
  82   86    0    0    0
SMALL
NO_CHARGES


@<TRIPOS>ATOM
   1 C1            -0.7545     1.1783     0.9239 C.2     
   2 C2            -0.3778    -0.2085     0.4700 C.3     
   3 C3            -1.2583    -0.6146    -0.7134 C.3     
   4 O4             0.0673     2.0638     0.9065 O.2     
   5 O5            -2.0047     1.4310     1.3422 O.3     
   6 C6            -0.9826    -2.0514    -1.0750 C.ar    
   7 C7            -1.6827    -3.0667    -0.4495 C.ar    
   8 C8            -1.4325    -4.3844    -0.7784 C.ar    
   9 C9            -0.4763    -4.6894    -1.7388 C.ar    
  10 C10            0.2251    -3.6671    -2.3652 C.ar    
  11 C11           -0.0341    -2.3512    -2.0355 C.ar    
  12 N12           -0.2204    -6.0211    -2.0735 N.3     
  13 C13            0.8210    -6.1138    -3.1047 C.3     
  14 C14            0.9718    -7.5702    -3.5499 C.3     
  15 C15            1.3461    -8.4321    -2.3410 C.3     
  16 C16            0.2697    -8.2800    -1.2626 C.3     
  17 C17            0.1393    -6.8030    -0.8838 C.3     
  18 C18            1.4374    -9.8765    -2.7612 C.2     
  19 N19            1.7559   -10.8228    -1.8560 N.am    
  20 O20            1.2243   -10.1872    -3.9137 O.2     
  21 C21            1.8396   -12.1470    -2.2413 C.2     
  22 N22            1.6082   -12.4525    -3.4740 N.2     
  23 C23            1.6545   -13.8141    -3.9945 C.3     
  24 C24            2.4766   -14.7156    -3.0708 C.3     
  25 C25            1.9831   -14.5137    -1.6301 C.3     
  26 N26            2.1716   -13.0915    -1.2997 N.pl3   
  27 N27            1.0286    -0.2228     0.0598 N.am    
  28 C28            2.0019    -0.2617     0.9913 C.2     
  29 C29            3.4191    -0.1839     0.5824 C.ar    
  30 C30            4.1698    -1.3537     0.4372 C.ar    
  31 C31            5.4900    -1.2809     0.0563 C.ar    
  32 C32            6.0801    -0.0376    -0.1849 C.ar    
  33 C33            5.3299     1.1317    -0.0398 C.ar    
  34 C34            4.0076     1.0590     0.3351 C.ar    
  35 O35            1.7133    -0.3609     2.1681 O.2     
  36 C36            3.1966     2.3202     0.4856 C.3     
  37 C37            7.4984     0.0403    -0.5931 C.2     
  38 N38            8.3077    -0.9819    -0.7636 N.2     
  39 C39            9.5116    -0.5339    -1.1324 C.2     
  40 C40            9.4629     0.8138    -1.1973 C.2     
  41 N41            8.1904     1.1851    -0.8631 N.pl3   
  42 C42            3.5337    -2.6947     0.6982 C.3     
  43 C43            2.8528    -3.1933    -0.5780 C.3     
  44 H44           -0.5242    -0.9115     1.2900 H       
  45 H45           -2.3077    -0.5036    -0.4404 H       
  46 H46           -1.0357     0.0243    -1.5681 H       
  47 H47           -2.1990     2.3355     1.6237 H       
  48 H48           -2.4257    -2.8289     0.2974 H       
  49 H49           -1.9794    -5.1770    -0.2892 H       
  50 H50            0.9691    -3.9007    -3.1123 H       
  51 H51            0.5075    -1.5556    -2.5256 H       
  52 H52            0.5405    -5.4996    -3.9604 H       
  53 H53            1.7677    -5.7585    -2.6976 H       
  54 H54            0.0293    -7.9218    -3.9697 H       
  55 H55            1.7556    -7.6409    -4.3039 H       
  56 H56            2.3076    -8.1057    -1.9445 H       
  57 H57           -0.6838    -8.6428    -1.6465 H       
  58 H58            0.5520    -8.8579    -0.3826 H       
  59 H59            1.0892    -6.4446    -0.4871 H       
  60 H60           -0.6363    -6.6895    -0.1264 H       
  61 H61            1.9264   -10.5743    -0.9340 H       
  62 H62            0.6398   -14.2052    -4.0686 H       
  63 H63            2.1087   -13.8049    -4.9853 H       
  64 H64            2.3436   -15.7577    -3.3616 H       
  65 H65            3.5307   -14.4469    -3.1387 H       
  66 H66            0.9280   -14.7779    -1.5592 H       
  67 H67            2.5674   -15.1315    -0.9482 H       
  68 H68            2.5199   -12.8257    -0.4343 H       
  69 H69            1.2593    -0.2043    -0.8822 H       
  70 H70            6.0702    -2.1849    -0.0559 H       
  71 H71            5.7863     2.0926    -0.2263 H       
  72 H72            3.2822     2.6873     1.5083 H       
  73 H73            3.5700     3.0768    -0.2045 H       
  74 H74            2.1510     2.1086     0.2618 H       
  75 H75           10.3765    -1.1457    -1.3424 H       
  76 H76           10.2744     1.4735    -1.4668 H       
  77 H77            7.8452     2.0908    -0.8235 H       
  78 H78            4.3001    -3.4072     1.0033 H       
  79 H79            2.7922    -2.5968     1.4912 H       
  80 H80            2.3081    -4.1128    -0.3637 H       
  81 H81            2.1580    -2.4351    -0.9391 H       
  82 H82            3.6074    -3.3872    -1.3403 H       
@<TRIPOS>BOND
   1    1    2 1
   2    1    4 2
   3    1    5 1
   4    2    3 1
   5    2   27 1
   6    2   44 1
   7    3    6 1
   8    3   45 1
   9    3   46 1
  10    5   47 1
  11    6    7 ar
  12    6   11 ar
  13    7    8 ar
  14    7   48 1
  15    8    9 ar
  16    8   49 1
  17    9   10 ar
  18    9   12 1
  19   10   11 ar
  20   10   50 1
  21   11   51 1
  22   12   13 1
  23   12   17 1
  24   13   14 1
  25   13   52 1
  26   13   53 1
  27   14   15 1
  28   14   54 1
  29   14   55 1
  30   15   16 1
  31   15   18 1
  32   15   56 1
  33   16   17 1
  34   16   57 1
  35   16   58 1
  36   17   59 1
  37   17   60 1
  38   18   19 am
  39   18   20 2
  40   19   21 1
  41   19   61 1
  42   21   22 2
  43   21   26 1
  44   22   23 1
  45   23   24 1
  46   23   62 1
  47   23   63 1
  48   24   25 1
  49   24   64 1
  50   24   65 1
  51   25   26 1
  52   25   66 1
  53   25   67 1
  54   26   68 1
  55   27   28 am
  56   27   69 1
  57   28   29 1
  58   28   35 2
  59   29   30 ar
  60   29   34 ar
  61   30   31 ar
  62   30   42 1
  63   31   32 ar
  64   31   70 1
  65   32   33 ar
  66   32   37 1
  67   33   34 ar
  68   33   71 1
  69   34   36 1
  70   36   72 1
  71   36   73 1
  72   36   74 1
  73   37   38 2
  74   37   41 1
  75   38   39 1
  76   39   40 2
  77   39   75 1
  78   40   41 1
  79   40   76 1
  80   41   77 1
  81   42   43 1
  82   42   78 1
  83   42   79 1
  84   43   80 1
  85   43   81 1
  86   43   82 1

#	End of record

