#	Name: ASD01811603
#	Creating user name:	WinNT
#	Creation time:	15. 06. 2019 19:27

#	Modifying user name:	WinNT
#	Modification time:	15. 06. 2019 19:27

#	Program:	/corina/corina34_cracker 3.40 0067  02.08.2006

@<TRIPOS>MOLECULE
ASD01811603
  58   61    0    0    0
SMALL
NO_CHARGES


@<TRIPOS>ATOM
   1 C1            -0.3222     0.9034     0.8919 C.ar    
   2 C2            -0.0344    -0.2704     0.2055 C.ar    
   3 C3            -1.0179    -0.9053    -0.5298 C.ar    
   4 C4            -2.2918    -0.3784    -0.5871 C.ar    
   5 C5            -2.5914     0.8001     0.0991 C.ar    
   6 C6            -1.6010     1.4380     0.8453 C.ar    
   7 C7            -3.9558     1.3668     0.0394 C.2     
   8 O8            -4.1109     2.5663    -0.0818 O.2     
   9 N9            -5.0275     0.5534     0.1193 N.am    
  10 C10           -6.3876     1.1082     0.1522 C.3     
  11 C11           -7.1190     0.5483     1.3763 C.3     
  12 C12           -7.0645    -0.9807     1.3429 C.3     
  13 C13           -5.6065    -1.4423     1.3985 C.3     
  14 C14           -4.8581    -0.9052     0.1690 C.3     
  15 C15           -7.8124    -1.5357     2.5276 C.ar    
  16 C16           -8.9010    -2.3660     2.3274 C.ar    
  17 C17           -7.4038    -1.2173     3.8106 C.ar    
  18 C18           -8.0835    -1.7222     4.8996 C.ar    
  19 C19           -9.1862    -2.5564     4.7049 C.ar    
  20 C20           -9.5899    -2.8779     3.4074 C.ar    
  21 C21           -9.8966    -3.0842     5.8307 C.1     
  22 N22          -10.4601    -3.5029     6.7238 N.1     
  23 N23            0.6753     1.5417     1.6332 N.am    
  24 S24            0.2932     2.2996     3.0552 S.o2    
  25 C25            1.3544    -0.8526     0.2628 C.3     
  26 C26            1.4034    -2.2720     0.8524 C.3     
  27 C27            2.4456    -2.6006    -0.2296 C.3     
  28 C28            1.8173    -1.4733    -1.0659 C.3     
  29 O29            1.5442     2.7413     3.5640 O.2     
  30 O30           -0.7207     3.2282     2.6959 O.2     
  31 C31           -0.3902     0.9837     4.1001 C.3     
  32 H32           -0.7882    -1.8168    -1.0617 H       
  33 H33           -3.0572    -0.8773    -1.1630 H       
  34 H34           -1.8268     2.3498     1.3782 H       
  35 H35           -6.3374     2.1948     0.2219 H       
  36 H36           -6.9208     0.8224    -0.7545 H       
  37 H37           -6.6372     0.9098     2.2848 H       
  38 H38           -8.1585     0.8758     1.3602 H       
  39 H39           -7.5244    -1.3404     0.4224 H       
  40 H40           -5.1389    -1.0621     2.3068 H       
  41 H41           -5.5694    -2.5317     1.3983 H       
  42 H42           -5.2679    -1.3570    -0.7343 H       
  43 H43           -3.7984    -1.1462     0.2522 H       
  44 H44           -9.2123    -2.6136     1.3233 H       
  45 H45           -6.5506    -0.5722     3.9598 H       
  46 H46           -7.7634    -1.4732     5.9006 H       
  47 H47          -10.4421    -3.5223     3.2497 H       
  48 H48            1.5916     1.5408     1.3151 H       
  49 H49            2.0812    -0.1709     0.7045 H       
  50 H50            1.8004    -2.3100     1.8668 H       
  51 H51            0.4698    -2.8235     0.7412 H       
  52 H52            3.4718    -2.3973     0.0765 H       
  53 H53            2.3221    -3.5907    -0.6685 H       
  54 H54            0.9969    -1.8065    -1.7015 H       
  55 H55            2.5484    -0.8665    -1.6000 H       
  56 H56            0.3602     0.2060     4.2423 H       
  57 H57           -0.6722     1.3979     5.0681 H       
  58 H58           -1.2694     0.5564     3.6177 H       
@<TRIPOS>BOND
   1    1    2 ar
   2    1   23 1
   3    1    6 ar
   4    2    3 ar
   5    2   25 1
   6    3    4 ar
   7    3   32 1
   8    4    5 ar
   9    4   33 1
  10    5    6 ar
  11    5    7 1
  12    6   34 1
  13    7    8 2
  14    7    9 am
  15    9   10 1
  16    9   14 1
  17   10   11 1
  18   10   35 1
  19   10   36 1
  20   11   12 1
  21   11   37 1
  22   11   38 1
  23   12   13 1
  24   12   15 1
  25   12   39 1
  26   13   14 1
  27   13   40 1
  28   13   41 1
  29   14   42 1
  30   14   43 1
  31   15   16 ar
  32   15   17 ar
  33   16   20 ar
  34   16   44 1
  35   17   18 ar
  36   17   45 1
  37   18   19 ar
  38   18   46 1
  39   19   20 ar
  40   19   21 1
  41   20   47 1
  42   21   22 3
  43   23   24 am
  44   23   48 1
  45   24   29 2
  46   24   30 2
  47   24   31 1
  48   25   26 1
  49   25   28 1
  50   25   49 1
  51   26   27 1
  52   26   50 1
  53   26   51 1
  54   27   28 1
  55   27   52 1
  56   27   53 1
  57   28   54 1
  58   28   55 1
  59   31   56 1
  60   31   57 1
  61   31   58 1

#	End of record

