#	Name: ASD01812982
#	Creating user name:	WinNT
#	Creation time:	15. 06. 2019 19:29

#	Modifying user name:	WinNT
#	Modification time:	15. 06. 2019 19:29

#	Program:	/corina/corina34_cracker 3.40 0067  02.08.2006

@<TRIPOS>MOLECULE
ASD01812982
  46   50    0    0    0
SMALL
NO_CHARGES


@<TRIPOS>ATOM
   1 N1            -0.0158     1.3147     0.0093 N.ar    
   2 C2             0.0021    -0.0041     0.0020 C.ar    
   3 C3             1.1989    -0.7033    -0.0127 C.ar    
   4 C4             2.3829    -0.0013    -0.0202 C.ar    
   5 C5             2.3448     1.3978    -0.0128 C.ar    
   6 C6             1.0955     2.0332     0.0025 C.ar    
   7 C7             3.8373    -0.3889    -0.0363 C.3     
   8 N8             4.5955     0.8684    -0.0373 N.am    
   9 C9             3.7280     1.8961    -0.0237 C.2     
  10 C10            6.0558     0.9844    -0.0504 C.3     
  11 C11            6.5432     1.0311    -1.4757 C.ar    
  12 O12            1.0255     3.3856     0.0100 O.3     
  13 O13            4.0429     3.0706    -0.0212 O.2     
  14 C14            6.4774     2.2143    -2.1914 C.ar    
  15 C15            6.9259     2.2563    -3.5007 C.ar    
  16 C16            7.4390     1.1165    -4.0918 C.ar    
  17 C17            7.5037    -0.0653    -3.3753 C.ar    
  18 C18            7.0613    -0.1060    -2.0665 C.ar    
  19 C19           -0.2795     3.9677     0.0251 C.3     
  20 F20            5.9754     3.3272    -1.6129 F       
  21 Br21           8.0519     1.1728    -5.8799 Br      
  22 C22           -0.7313     4.2074     1.4509 C.ar    
  23 C23           -0.5793     5.5445     1.7664 C.ar    
  24 C24           -0.0174     6.2941     0.5793 C.3     
  25 C25           -0.2503     5.3644    -0.6308 C.3     
  26 N26           -1.2106     3.3612     2.3473 N.ar    
  27 C27           -1.5575     3.7480     3.5577 C.ar    
  28 C28           -1.4316     5.0695     3.9416 C.ar    
  29 C29           -0.9338     5.9890     3.0315 C.ar    
  30 H30           -0.9309    -0.5480     0.0080 H       
  31 H31            1.2023    -1.7833    -0.0178 H       
  32 H32            4.0797    -0.9721     0.8522 H       
  33 H33            4.0624    -0.9631    -0.9351 H       
  34 H34            6.3524     1.8979     0.4651 H       
  35 H35            6.4932     0.1235     0.4552 H       
  36 H36            6.8747     3.1787    -4.0601 H       
  37 H37            7.9039    -0.9555    -3.8376 H       
  38 H38            7.1164    -1.0279    -1.5066 H       
  39 H39           -0.9876     3.3202    -0.4921 H       
  40 H40           -0.5484     7.2359     0.4407 H       
  41 H41            1.0484     6.4763     0.7169 H       
  42 H42            0.5720     5.4412    -1.3423 H       
  43 H43           -1.2027     5.5863    -1.1123 H       
  44 H44           -1.9446     3.0235     4.2588 H       
  45 H45           -1.7170     5.3813     4.9354 H       
  46 H46           -0.8237     7.0288     3.3019 H       
@<TRIPOS>BOND
   1    1    2 ar
   2    1    6 ar
   3    2    3 ar
   4    2   30 1
   5    3    4 ar
   6    3   31 1
   7    4    7 1
   8    4    5 ar
   9    5    6 ar
  10    5    9 1
  11    6   12 1
  12    7    8 1
  13    7   32 1
  14    7   33 1
  15    8    9 am
  16    8   10 1
  17    9   13 2
  18   10   11 1
  19   10   34 1
  20   10   35 1
  21   11   14 ar
  22   11   18 ar
  23   12   19 1
  24   14   15 ar
  25   14   20 1
  26   15   16 ar
  27   15   36 1
  28   16   17 ar
  29   16   21 1
  30   17   18 ar
  31   17   37 1
  32   18   38 1
  33   19   22 1
  34   19   25 1
  35   19   39 1
  36   22   26 ar
  37   22   23 ar
  38   23   24 1
  39   23   29 ar
  40   24   25 1
  41   24   40 1
  42   24   41 1
  43   25   42 1
  44   25   43 1
  45   26   27 ar
  46   27   28 ar
  47   27   44 1
  48   28   29 ar
  49   28   45 1
  50   29   46 1

#	End of record

