#	Name: ASD01100077
#	Creating user name:	WinNT
#	Creation time:	15. 06. 2019 18:58

#	Modifying user name:	WinNT
#	Modification time:	15. 06. 2019 18:58

#	Program:	/corina/corina34_cracker 3.40 0067  02.08.2006

@<TRIPOS>MOLECULE
ASD01100077
  31   32    0    0    0
SMALL
NO_CHARGES


@<TRIPOS>ATOM
   1 C1             0.6412     0.7256    -1.7363 C.ar    
   2 C2             0.0925    -0.0409    -0.7235 C.ar    
   3 C3             0.7036    -0.0870     0.5169 C.ar    
   4 C4             1.8617     0.6326     0.7436 C.ar    
   5 C5             2.4094     1.3982    -0.2688 C.ar    
   6 C6             1.7993     1.4447    -1.5084 C.ar    
   7 C7             3.6719     2.1830    -0.0208 C.3     
   8 Cl8           -1.3624    -0.9439    -1.0088 Cl      
   9 C9             3.3777     3.6566    -0.1340 C.2     
  10 N10            4.3822     4.5520    -0.0586 N.am    
  11 O11            2.2370     4.0369    -0.2929 O.2     
  12 C12            4.1107     5.9123    -0.1631 C.2     
  13 N13            4.9930     6.8622    -0.1055 N.2     
  14 C14            4.5498     8.0998    -0.2250 C.2     
  15 C15            3.2320     8.2300    -0.3928 C.2     
  16 S16            2.5154     6.6199    -0.4024 S.3     
  17 C17            4.1970     1.8741     1.3827 C.3     
  18 C18            4.7271     1.7924    -1.0575 C.3     
  19 F19            2.5633     9.3952    -0.5356 F       
  20 H20            0.1670     0.7584    -2.7061 H       
  21 H21            0.2756    -0.6848     1.3080 H       
  22 H22            2.3386     0.5970     1.7119 H       
  23 H23            2.2276     2.0430    -2.2989 H       
  24 H24            5.2945     4.2479     0.0685 H       
  25 H25            5.2113     8.9527    -0.1889 H       
  26 H26            4.4097     0.8082     1.4646 H       
  27 H27            5.1101     2.4417     1.5621 H       
  28 H28            3.4452     2.1523     2.1213 H       
  29 H29            4.3530     2.0125    -2.0574 H       
  30 H30            5.6402     2.3600    -0.8782 H       
  31 H31            4.9398     0.7265    -0.9756 H       
@<TRIPOS>BOND
   1    1    2 ar
   2    1    6 ar
   3    1   20 1
   4    2    3 ar
   5    2    8 1
   6    3    4 ar
   7    3   21 1
   8    4    5 ar
   9    4   22 1
  10    5    6 ar
  11    5    7 1
  12    6   23 1
  13    7    9 1
  14    7   17 1
  15    7   18 1
  16    9   10 am
  17    9   11 2
  18   10   12 1
  19   10   24 1
  20   12   13 2
  21   12   16 1
  22   13   14 1
  23   14   15 2
  24   14   25 1
  25   15   16 1
  26   15   19 1
  27   17   26 1
  28   17   27 1
  29   17   28 1
  30   18   29 1
  31   18   30 1
  32   18   31 1

#	End of record

