#	Name: ASD08390006
#	Creating user name:	WinNT
#	Creation time:	15. 06. 2019 21:19

#	Modifying user name:	WinNT
#	Modification time:	15. 06. 2019 21:19

#	Program:	/corina/corina34_cracker 3.40 0067  02.08.2006

@<TRIPOS>MOLECULE
ASD08390006
  56   60    0    0    0
SMALL
NO_CHARGES


@<TRIPOS>ATOM
   1 N1            -0.0841     1.2515    -0.4065 N.2     
   2 C2             0.0872    -0.1786    -0.1159 C.3     
   3 C3             1.5898    -0.3193     0.1989 C.3     
   4 N4             2.0967     1.0550     0.0490 N.pl3   
   5 C5             1.0475     1.8658    -0.2992 C.2     
   6 C6             2.2669    -2.5559     3.1676 C.ar    
   7 C7             2.0863    -2.1420     1.8614 C.ar    
   8 C8             1.7939    -0.8104     1.6090 C.ar    
   9 C9             1.6941     0.0587     2.6846 C.ar    
  10 C10            1.8881    -0.4276     3.9636 C.ar    
  11 N11            2.1645    -1.7010     4.1664 N.ar    
  12 C12            4.2610     1.2498    -1.0313 C.ar    
  13 C13            4.4173     2.2764    -1.9438 C.ar    
  14 C14            5.1340     2.0644    -3.1067 C.ar    
  15 C15            5.6949     0.8260    -3.3568 C.ar    
  16 C16            5.5394    -0.2003    -2.4439 C.ar    
  17 C17            4.8215     0.0113    -1.2817 C.ar    
  18 C18            3.4849     1.4827     0.2393 C.3     
  19 C19            1.1981     3.3204    -0.5323 C.ar    
  20 C20            0.5689     3.9239    -1.6208 C.ar    
  21 C21            0.7126     5.2798    -1.8325 C.ar    
  22 C22            1.4793     6.0403    -0.9678 C.ar    
  23 C23            2.1059     5.4474     0.1137 C.ar    
  24 C24            1.9650     4.0933     0.3391 C.ar    
  25 C25           -0.7420    -0.5780     1.0774 C.ar    
  26 C26           -1.3044     0.3932     1.8845 C.ar    
  27 C27           -2.0650     0.0269     2.9791 C.ar    
  28 C28           -2.2635    -1.3106     3.2665 C.ar    
  29 C29           -1.7019    -2.2818     2.4589 C.ar    
  30 C30           -0.9449    -1.9155     1.3617 C.ar    
  31 C31           -0.2838    -1.0097    -1.3170 C.2     
  32 O32            0.3371    -2.0145    -1.5715 O.2     
  33 O33           -1.3040    -0.6338    -2.1041 O.3     
  34 H34            2.0714    -0.9870    -0.5154 H       
  35 H35            2.4906    -3.5924     3.3729 H       
  36 H36            2.1718    -2.8469     1.0476 H       
  37 H37            1.4680     1.1027     2.5250 H       
  38 H38            1.8121     0.2429     4.8069 H       
  39 H39            3.9791     3.2440    -1.7484 H       
  40 H40            5.2555     2.8663    -3.8199 H       
  41 H41            6.2543     0.6602    -4.2657 H       
  42 H42            5.9770    -1.1681    -2.6397 H       
  43 H43            4.6994    -0.7908    -0.5688 H       
  44 H44            3.5072     2.5434     0.4894 H       
  45 H45            3.9341     0.9088     1.0498 H       
  46 H46           -0.0293     3.3311    -2.2969 H       
  47 H47            0.2259     5.7483    -2.6751 H       
  48 H48            1.5895     7.1011    -1.1380 H       
  49 H49            2.7032     6.0462     0.7853 H       
  50 H50            2.4510     3.6323     1.1863 H       
  51 H51           -1.1493     1.4382     1.6600 H       
  52 H52           -2.5038     0.7857     3.6101 H       
  53 H53           -2.8572    -1.5968     4.1221 H       
  54 H54           -1.8567    -3.3268     2.6835 H       
  55 H55           -0.5092    -2.6742     0.7286 H       
  56 H56           -1.5045    -1.1988    -2.8628 H       
@<TRIPOS>BOND
   1    1    2 1
   2    1    5 2
   3    2   25 1
   4    2   31 1
   5    2    3 1
   6    3    4 1
   7    3    8 1
   8    3   34 1
   9    4    5 1
  10    4   18 1
  11    5   19 1
  12    6    7 ar
  13    6   11 ar
  14    6   35 1
  15    7    8 ar
  16    7   36 1
  17    8    9 ar
  18    9   10 ar
  19    9   37 1
  20   10   11 ar
  21   10   38 1
  22   12   13 ar
  23   12   17 ar
  24   12   18 1
  25   13   14 ar
  26   13   39 1
  27   14   15 ar
  28   14   40 1
  29   15   16 ar
  30   15   41 1
  31   16   17 ar
  32   16   42 1
  33   17   43 1
  34   18   44 1
  35   18   45 1
  36   19   20 ar
  37   19   24 ar
  38   20   21 ar
  39   20   46 1
  40   21   22 ar
  41   21   47 1
  42   22   23 ar
  43   22   48 1
  44   23   24 ar
  45   23   49 1
  46   24   50 1
  47   25   26 ar
  48   25   30 ar
  49   26   27 ar
  50   26   51 1
  51   27   28 ar
  52   27   52 1
  53   28   29 ar
  54   28   53 1
  55   29   30 ar
  56   29   54 1
  57   30   55 1
  58   31   32 2
  59   31   33 1
  60   33   56 1

#	End of record

