#	Name: ASD01914464
#	Creating user name:	WinNT
#	Creation time:	15. 06. 2019 20:03

#	Modifying user name:	WinNT
#	Modification time:	15. 06. 2019 20:03

#	Program:	/corina/corina34_cracker 3.40 0067  02.08.2006

@<TRIPOS>MOLECULE
ASD01914464
  54   58    0    0    0
SMALL
NO_CHARGES


@<TRIPOS>ATOM
   1 C1            -0.0187     1.5258     0.0104 C.3     
   2 C2             0.0021    -0.0041     0.0020 C.3     
   3 C3             0.7182    -0.4975    -1.2568 C.3     
   4 C4            -0.0218     0.0093    -2.4963 C.3     
   5 C5            -0.0425     1.5392    -2.4879 C.3     
   6 C6             1.3929     2.0688    -2.4988 C.3     
   7 C7             2.1328     1.5619    -1.2592 C.3     
   8 C8             1.4167     2.0553    -0.0004 C.3     
   9 C9             2.1536     0.0321    -1.2676 C.3     
  10 C10           -0.7587     2.0326    -1.2291 C.3     
  11 N11           -2.5831     3.7886     4.5105 N.pl3   
  12 N12           -2.0616     3.0470     3.6003 N.2     
  13 C13           -1.5348     3.7967     2.6528 C.2     
  14 C14           -1.7571     5.1446     3.0214 C.2     
  15 C15           -2.4215     5.0927     4.1996 C.2     
  16 C16           -0.8434     3.3203     1.4375 C.2     
  17 O17           -0.3998     4.1208     0.6373 O.2     
  18 N18           -0.7044     1.9982     1.2158 N.am    
  19 C19           -3.2612     3.2910     5.7100 C.3     
  20 N20            1.0258    -6.1240    -1.6987 N.pl3   
  21 N21            0.8305    -4.8961    -1.3751 N.2     
  22 C22            1.3411    -4.0997    -2.2930 C.2     
  23 C23            1.9117    -4.9286    -3.2878 C.2     
  24 C24            1.6897    -6.1977    -2.8723 C.2     
  25 C25            1.3211    -2.6228    -2.2848 C.2     
  26 O26            1.8305    -2.0029    -3.1982 O.2     
  27 N27            0.7381    -1.9623    -1.2648 N.am    
  28 C28            0.5957    -7.2781    -0.9055 C.3     
  29 H29            0.5293    -0.3651     0.8851 H       
  30 H30           -1.0205    -0.3814     0.0098 H       
  31 H31            0.4884    -0.3422    -3.3931 H       
  32 H32           -1.0444    -0.3679    -2.4886 H       
  33 H33           -0.5697     1.9003    -3.3710 H       
  34 H34            1.9030     1.7172    -3.3956 H       
  35 H35            1.3781     3.1587    -2.4928 H       
  36 H36            3.1554     1.9392    -1.2670 H       
  37 H37            1.4019     3.1452     0.0056 H       
  38 H38            1.9439     1.6943     0.8826 H       
  39 H39            2.6808    -0.3290    -0.3846 H       
  40 H40            2.6638    -0.3194    -2.1644 H       
  41 H41           -1.7813     1.6553    -1.2214 H       
  42 H42           -0.7734     3.1225    -1.2231 H       
  43 H43           -1.4591     6.0288     2.4774 H       
  44 H44           -2.7596     5.9369     4.7823 H       
  45 H45           -1.0583     1.3595     1.8542 H       
  46 H46           -2.5359     3.1735     6.5151 H       
  47 H47           -4.0297     4.0016     6.0141 H       
  48 H48           -3.7226     2.3275     5.4932 H       
  49 H49            2.4174    -4.6149    -4.1890 H       
  50 H50            1.9883    -7.1008    -3.3838 H       
  51 H51            0.3316    -2.4569    -0.5361 H       
  52 H52           -0.4077    -7.5750    -1.2106 H       
  53 H53            1.2848    -8.1070    -1.0669 H       
  54 H54            0.5899    -7.0108     0.1512 H       
@<TRIPOS>BOND
   1    1    2 1
   2    1    8 1
   3    1   10 1
   4    1   18 1
   5    2    3 1
   6    2   29 1
   7    2   30 1
   8    3    4 1
   9    3    9 1
  10    3   27 1
  11    4    5 1
  12    4   31 1
  13    4   32 1
  14    5    6 1
  15    5   10 1
  16    5   33 1
  17    6    7 1
  18    6   34 1
  19    6   35 1
  20    7    8 1
  21    7    9 1
  22    7   36 1
  23    8   37 1
  24    8   38 1
  25    9   39 1
  26    9   40 1
  27   10   41 1
  28   10   42 1
  29   11   12 1
  30   11   15 1
  31   11   19 1
  32   12   13 2
  33   13   14 1
  34   13   16 1
  35   14   15 2
  36   14   43 1
  37   15   44 1
  38   16   17 2
  39   16   18 am
  40   18   45 1
  41   19   46 1
  42   19   47 1
  43   19   48 1
  44   20   21 1
  45   20   24 1
  46   20   28 1
  47   21   22 2
  48   22   23 1
  49   22   25 1
  50   23   24 2
  51   23   49 1
  52   24   50 1
  53   25   26 2
  54   25   27 am
  55   27   51 1
  56   28   52 1
  57   28   53 1
  58   28   54 1

#	End of record

