#	Name: ASD01870095
#	Creating user name:	WinNT
#	Creation time:	15. 06. 2019 19:38

#	Modifying user name:	WinNT
#	Modification time:	15. 06. 2019 19:38

#	Program:	/corina/corina34_cracker 3.40 0067  02.08.2006

@<TRIPOS>MOLECULE
ASD01870095
  74   78    0    0    0
SMALL
NO_CHARGES


@<TRIPOS>ATOM
   1 C1             0.2389     1.0577     0.0223 C.3     
   2 O2             0.1878    -0.3704     0.0134 O.3     
   3 C3            -1.0448    -0.9438     0.0196 C.ar    
   4 C4            -2.1815    -0.1489     0.0340 C.ar    
   5 C5            -3.4277    -0.7431     0.0410 C.ar    
   6 C6            -3.5480    -2.1215     0.0292 C.ar    
   7 C7            -2.4221    -2.9216     0.0154 C.ar    
   8 C8            -1.1684    -2.3225     0.0121 C.ar    
   9 C9            -2.4690    -4.4260     0.0018 C.3     
  10 C10           -3.8869    -4.9553    -0.2294 C.3     
  11 C11           -4.8273    -4.1250     0.6425 C.3     
  12 C12           -4.9273    -2.7360     0.0165 C.3     
  13 C13           -5.9569    -1.8702     0.7104 C.3     
  14 C14           -7.3446    -2.5247     0.7756 C.3     
  15 C15           -7.3246    -3.9398     0.2724 C.3     
  16 C16           -6.1601    -4.7353     0.9019 C.3     
  17 C17           -6.4338    -6.1452     0.3545 C.3     
  18 C18           -7.9751    -6.2717     0.5318 C.3     
  19 C19           -8.5153    -4.8264     0.6961 C.3     
  20 N20           -8.8827    -4.5740     2.0902 N.3     
  21 C21          -10.2603    -5.0077     2.3584 C.3     
  22 C22          -10.6071    -4.7284     3.8221 C.3     
  23 C23          -12.0420    -5.1801     4.1015 C.3     
  24 C24          -12.3888    -4.9007     5.5652 C.3     
  25 C25          -13.8237    -5.3524     5.8445 C.3     
  26 C26          -14.1705    -5.0731     7.3083 C.3     
  27 N27          -15.5444    -5.5056     7.5758 N.am    
  28 C28          -15.9036    -6.7323     7.9950 C.2     
  29 O29          -15.1484    -7.6575     8.2131 O.2     
  30 C30          -17.3752    -6.7624     8.1456 C.2     
  31 C31          -17.8251    -5.5431     7.8063 C.2     
  32 C32          -16.6393    -4.7351     7.4453 C.2     
  33 O33          -16.6529    -3.5758     7.0850 O.2     
  34 C34           -7.3026    -3.9763    -1.2580 C.3     
  35 H35            1.2789     1.3840     0.0160 H       
  36 H36           -0.2687     1.4449    -0.8611 H       
  37 H37           -0.2544     1.4333     0.9188 H       
  38 H38           -2.0933     0.9272     0.0362 H       
  39 H39           -4.3094    -0.1199     0.0540 H       
  40 H40           -0.2822    -2.9397     0.0029 H       
  41 H41           -1.8175    -4.7972    -0.7889 H       
  42 H42           -2.1083    -4.7993     0.9617 H       
  43 H43           -4.1553    -4.8414    -1.2780 H       
  44 H44           -3.9395    -6.0028     0.0610 H       
  45 H45           -4.3184    -4.0009     1.6218 H       
  46 H46           -5.1757    -2.8281    -1.0390 H       
  47 H47           -5.6146    -1.6481     1.7305 H       
  48 H48           -6.0413    -0.9108     0.1804 H       
  49 H49           -7.7027    -2.4912     1.8137 H       
  50 H50           -8.0518    -1.9328     0.1734 H       
  51 H51           -6.3142    -4.7756     2.0009 H       
  52 H52           -6.1399    -6.2470    -0.6819 H       
  53 H53           -5.9245    -6.8914     0.9703 H       
  54 H54           -8.4142    -6.7363    -0.3495 H       
  55 H55           -8.2004    -6.8579     1.4213 H       
  56 H56           -9.3545    -4.6525     0.0303 H       
  57 H57           -8.2339    -5.0198     2.7215 H       
  58 H58          -10.9460    -4.4602     1.7117 H       
  59 H59          -10.3498    -6.0760     2.1613 H       
  60 H60           -9.9215    -5.2759     4.4688 H       
  61 H61          -10.5176    -3.6601     4.0193 H       
  62 H62          -12.7277    -4.6326     3.4548 H       
  63 H63          -12.1315    -6.2483     3.9043 H       
  64 H64          -11.7031    -5.4482     6.2119 H       
  65 H65          -12.2993    -3.8324     5.7623 H       
  66 H66          -14.5093    -4.8049     5.1978 H       
  67 H67          -13.9132    -6.4207     5.6474 H       
  68 H68          -13.4848    -5.6206     7.9550 H       
  69 H69          -14.0810    -4.0048     7.5054 H       
  70 H70          -17.9727    -7.6030     8.4662 H       
  71 H71          -18.8539    -5.2144     7.8019 H       
  72 H72           -6.4914    -3.3475    -1.6248 H       
  73 H73           -7.1484    -5.0014    -1.5948 H       
  74 H74           -8.2524    -3.6060    -1.6439 H       
@<TRIPOS>BOND
   1    1    2 1
   2    1   35 1
   3    1   36 1
   4    1   37 1
   5    2    3 1
   6    3    4 ar
   7    3    8 ar
   8    4    5 ar
   9    4   38 1
  10    5    6 ar
  11    5   39 1
  12    6    7 ar
  13    6   12 1
  14    7    8 ar
  15    7    9 1
  16    8   40 1
  17    9   10 1
  18    9   41 1
  19    9   42 1
  20   10   11 1
  21   10   43 1
  22   10   44 1
  23   11   12 1
  24   11   16 1
  25   11   45 1
  26   12   13 1
  27   12   46 1
  28   13   14 1
  29   13   47 1
  30   13   48 1
  31   14   15 1
  32   14   49 1
  33   14   50 1
  34   15   16 1
  35   15   34 1
  36   15   19 1
  37   16   17 1
  38   16   51 1
  39   17   18 1
  40   17   52 1
  41   17   53 1
  42   18   19 1
  43   18   54 1
  44   18   55 1
  45   19   20 1
  46   19   56 1
  47   20   21 1
  48   20   57 1
  49   21   22 1
  50   21   58 1
  51   21   59 1
  52   22   23 1
  53   22   60 1
  54   22   61 1
  55   23   24 1
  56   23   62 1
  57   23   63 1
  58   24   25 1
  59   24   64 1
  60   24   65 1
  61   25   26 1
  62   25   66 1
  63   25   67 1
  64   26   27 1
  65   26   68 1
  66   26   69 1
  67   27   28 am
  68   27   32 am
  69   28   29 2
  70   28   30 1
  71   30   31 2
  72   30   70 1
  73   31   32 1
  74   31   71 1
  75   32   33 2
  76   34   72 1
  77   34   73 1
  78   34   74 1

#	End of record

