#	Name: ASD04162005
#	Creating user name:	WinNT
#	Creation time:	15. 06. 2019 20:48

#	Modifying user name:	WinNT
#	Modification time:	15. 06. 2019 20:48

#	Program:	/corina/corina34_cracker 3.40 0067  02.08.2006

@<TRIPOS>MOLECULE
ASD04162005
  42   44    0    0    0
SMALL
NO_CHARGES


@<TRIPOS>ATOM
   1 C1             0.0018     2.2762     0.3894 C.ar    
   2 C2             0.2128     0.9164     0.5999 C.ar    
   3 C3            -0.8475     0.0404     0.6644 C.ar    
   4 C4            -2.1611     0.5293     0.5155 C.ar    
   5 C5            -2.3648     1.9155     0.3021 C.ar    
   6 C6            -1.2560     2.7777     0.2477 C.ar    
   7 C7            -3.2680    -0.3339     0.5748 C.ar    
   8 C8            -4.5244     0.1634     0.4277 C.ar    
   9 C9            -4.7361     1.5314     0.2160 C.ar    
  10 C10           -3.6728     2.4055     0.1534 C.ar    
  11 S11            1.3838     3.3664     0.3123 S.o2    
  12 O12           -0.6293    -1.2842     0.8693 O.3     
  13 N13           -6.0375     2.0145     0.0674 N.pl3   
  14 C14           -6.3222     2.9669    -0.9180 C.ar    
  15 C15           -7.5773     3.5702    -0.9646 C.ar    
  16 C16           -7.8533     4.5119    -1.9421 C.ar    
  17 C17           -6.8848     4.8516    -2.8687 C.ar    
  18 C18           -5.6391     4.2532    -2.8234 C.ar    
  19 C19           -5.3534     3.3171    -1.8477 C.ar    
  20 O20           -8.5291     3.2348    -0.0530 O.3     
  21 C21           -9.7924     3.8938    -0.1617 C.3     
  22 O22            0.8950     4.6582     0.6463 O.2     
  23 O23            2.4385     2.7279     1.0187 O.2     
  24 O24            1.8221     3.4360    -1.1436 O.3     
  25 C25            0.9634     4.2223    -1.9721 C.3     
  26 H26            1.2202     0.5441     0.7137 H       
  27 H27           -1.4011     3.8355     0.0855 H       
  28 H28           -3.1207    -1.3915     0.7367 H       
  29 H29           -5.3710    -0.5056     0.4743 H       
  30 H30           -3.8437     3.4593    -0.0098 H       
  31 H31           -0.6176    -1.5413     1.8014 H       
  32 H32           -6.7444     1.6901     0.6470 H       
  33 H33           -8.8255     4.9808    -1.9807 H       
  34 H34           -7.1019     5.5862    -3.6300 H       
  35 H35           -4.8859     4.5215    -3.5495 H       
  36 H36           -4.3797     2.8511    -1.8146 H       
  37 H37           -9.6515     4.9694    -0.0558 H       
  38 H38          -10.2315     3.6791    -1.1360 H       
  39 H39          -10.4579     3.5354     0.6236 H       
  40 H40           -0.0413     3.7998    -1.9585 H       
  41 H41            0.9326     5.2450    -1.5963 H       
  42 H42            1.3439     4.2219    -2.9935 H       
@<TRIPOS>BOND
   1    1    2 ar
   2    1   11 1
   3    1    6 ar
   4    2    3 ar
   5    2   26 1
   6    3    4 ar
   7    3   12 1
   8    4    5 ar
   9    4    7 ar
  10    5    6 ar
  11    5   10 ar
  12    6   27 1
  13    7    8 ar
  14    7   28 1
  15    8    9 ar
  16    8   29 1
  17    9   10 ar
  18    9   13 1
  19   10   30 1
  20   11   22 2
  21   11   23 2
  22   11   24 1
  23   12   31 1
  24   13   14 1
  25   13   32 1
  26   14   15 ar
  27   14   19 ar
  28   15   16 ar
  29   15   20 1
  30   16   17 ar
  31   16   33 1
  32   17   18 ar
  33   17   34 1
  34   18   19 ar
  35   18   35 1
  36   19   36 1
  37   20   21 1
  38   21   37 1
  39   21   38 1
  40   21   39 1
  41   24   25 1
  42   25   40 1
  43   25   41 1
  44   25   42 1

#	End of record

