#	Name: ASD07300230
#	Creating user name:	WinNT
#	Creation time:	15. 06. 2019 21:09

#	Modifying user name:	WinNT
#	Modification time:	15. 06. 2019 21:09

#	Program:	/corina/corina34_cracker 3.40 0067  02.08.2006

@<TRIPOS>MOLECULE
ASD07300230
  47   50    0    0    0
SMALL
NO_CHARGES


@<TRIPOS>ATOM
   1 C1            -0.8588     0.9901    -0.1287 C.ar    
   2 C2            -1.0217    -0.3807    -0.3517 C.ar    
   3 C3             0.0637    -1.2292    -0.1921 C.ar    
   4 C4             1.2787    -0.6763     0.1860 C.ar    
   5 C5             1.3679     0.6878     0.3896 C.ar    
   6 N6             0.3194     1.4722     0.2308 N.ar    
   7 C7            -2.9727     0.6168    -0.6993 C.2     
   8 N8            -2.0973     1.5796    -0.3552 N.am    
   9 N9            -2.3516    -0.5780    -0.7114 N.am    
  10 O10           -4.1464     0.7990    -0.9634 O.2     
  11 C11           -2.9710    -1.8648    -1.0381 C.3     
  12 C12           -3.5346    -2.4976     0.2358 C.3     
  13 F13           -4.4943    -1.6464     0.7941 F       
  14 F14           -4.1262    -3.7263    -0.0763 F       
  15 F15           -2.4988    -2.6986     1.1543 F       
  16 C16           -2.3862     2.9477    -0.2432 C.ar    
  17 C17           -3.6705     3.4093    -0.4981 C.ar    
  18 C18           -3.9545     4.7560    -0.3872 C.ar    
  19 C19           -2.9567     5.6478    -0.0212 C.ar    
  20 C20           -1.6731     5.1870     0.2337 C.ar    
  21 C21           -1.3894     3.8398     0.1282 C.ar    
  22 O22           -3.2368     6.9738     0.0874 O.3     
  23 C23           -3.9132     7.3925     1.1815 C.2     
  24 N24           -4.2407     6.6360     2.1967 N.2     
  25 C25           -4.9115     7.3750     3.1189 C.ar    
  26 C26           -4.9944     8.6846     2.6168 C.ar    
  27 N27           -4.3497     8.6678     1.3918 N.pl3   
  28 C28           -5.4764     7.0780     4.3613 C.ar    
  29 C29           -6.1073     8.0687     5.0801 C.ar    
  30 C30           -6.1868     9.3596     4.5797 C.ar    
  31 C31           -5.6339     9.6694     3.3541 C.ar    
  32 H32           -0.0344    -2.2919    -0.3575 H       
  33 H33            2.1460    -1.3057     0.3203 H       
  34 H34            2.3132     1.1193     0.6840 H       
  35 H35           -3.7781    -1.7082    -1.7538 H       
  36 H36           -2.2233    -2.5280    -1.4731 H       
  37 H37           -4.4472     2.7152    -0.7834 H       
  38 H38           -4.9535     5.1152    -0.5859 H       
  39 H39           -0.8967     5.8815     0.5186 H       
  40 H40           -0.3912     3.4806     0.3306 H       
  41 H41           -4.2322     9.4220     0.7933 H       
  42 H42           -5.4188     6.0746     4.7568 H       
  43 H43           -6.5439     7.8385     6.0408 H       
  44 H44           -6.6850    10.1274     5.1529 H       
  45 H45           -5.6987    10.6768     2.9702 H       
  46 Cl46           7.3132    15.6768    11.0408 Cl      
  47 H47            7.3132    17.0468    11.0408 H       
@<TRIPOS>BOND
   1    1    2 ar
   2    1    6 ar
   3    1    8 1
   4    2    3 ar
   5    2    9 1
   6    3    4 ar
   7    3   32 1
   8    4    5 ar
   9    4   33 1
  10    5    6 ar
  11    5   34 1
  12    7    8 am
  13    7    9 am
  14    7   10 2
  15    8   16 1
  16    9   11 1
  17   11   12 1
  18   11   35 1
  19   11   36 1
  20   12   13 1
  21   12   14 1
  22   12   15 1
  23   16   17 ar
  24   16   21 ar
  25   17   18 ar
  26   17   37 1
  27   18   19 ar
  28   18   38 1
  29   19   20 ar
  30   19   22 1
  31   20   21 ar
  32   20   39 1
  33   21   40 1
  34   22   23 1
  35   23   24 2
  36   23   27 1
  37   24   25 1
  38   25   26 ar
  39   25   28 ar
  40   26   27 1
  41   26   31 ar
  42   27   41 1
  43   28   29 ar
  44   28   42 1
  45   29   30 ar
  46   29   43 1
  47   30   31 ar
  48   30   44 1
  49   31   45 1
  50   46   47 1

#	End of record

