#	Name: ASD04590469
#	Creating user name:	WinNT
#	Creation time:	15. 06. 2019 20:50

#	Modifying user name:	WinNT
#	Modification time:	15. 06. 2019 20:50

#	Program:	/corina/corina34_cracker 3.40 0067  02.08.2006

@<TRIPOS>MOLECULE
ASD04590469
  55   59    0    0    0
SMALL
NO_CHARGES


@<TRIPOS>ATOM
   1 C1            -0.1566     1.5125     1.2315 C.ar    
   2 C2            -0.2176     0.1854     1.6619 C.ar    
   3 C3            -2.4576     0.0102     0.8076 C.ar    
   4 C4            -2.3942     1.3493     0.3861 C.ar    
   5 C5            -1.2397     2.0906     0.5970 C.ar    
   6 N6            -3.6871    -0.4571     0.4764 N.2     
   7 C7            -4.3751     0.4907    -0.1123 C.2     
   8 N8            -3.6190     1.6300    -0.1928 N.pl3   
   9 C9            -5.7579     0.3512    -0.6137 C.2     
  10 C10           -6.5551    -0.8145    -0.5401 C.2     
  11 C11           -7.7531    -0.5323    -1.1081 C.2     
  12 N12           -7.7215     0.7602    -1.5268 N.pl3   
  13 N13           -6.4676     1.2934    -1.2031 N.2     
  14 N14           -6.1738    -2.0443     0.0206 N.am    
  15 C15           -7.0368    -3.0795     0.0246 C.2     
  16 O16           -8.1458    -2.9487    -0.4573 O.2     
  17 C17           -1.3565    -0.5633     1.4539 C.ar    
  18 O18            0.8529    -0.3720     2.2897 O.3     
  19 C19            0.7252    -1.7334     2.7047 C.3     
  20 C20           -6.6365    -4.3705     0.6132 C.ar    
  21 O21            0.9723     2.2413     1.4427 O.3     
  22 C22            0.9687     3.5925     0.9776 C.3     
  23 C23           -7.5632    -5.4201     0.7334 C.ar    
  24 C24           -5.3249    -4.5752     1.0573 C.ar    
  25 C25           -4.9998    -5.8046     1.6020 C.ar    
  26 C26           -5.9693    -6.7880     1.6922 C.ar    
  27 N27           -7.1981    -6.5775     1.2633 N.ar    
  28 N28           -8.8641    -5.2431     0.2961 N.pl3   
  29 C29           -9.7552    -6.3200     0.2998 C.ar    
  30 C30          -11.1065    -6.1045     0.5392 C.ar    
  31 C31          -11.9842    -7.1707     0.5422 C.ar    
  32 C32          -11.5193    -8.4517     0.3074 C.ar    
  33 C33          -10.1747    -8.6698     0.0688 C.ar    
  34 C34           -9.2925    -7.6074     0.0587 C.ar    
  35 H35           -1.1881     3.1173     0.2661 H       
  36 H36           -3.8913     2.4754    -0.5827 H       
  37 H37           -8.5849    -1.2136    -1.2098 H       
  38 H38           -8.4435     1.2326    -1.9701 H       
  39 H39           -5.2893    -2.1487     0.4049 H       
  40 H40           -1.3988    -1.5894     1.7883 H       
  41 H41           -0.1048    -1.8232     3.4056 H       
  42 H42            0.5357    -2.3622     1.8348 H       
  43 H43            1.6471    -2.0532     3.1904 H       
  44 H44            1.9263     4.0589     1.2089 H       
  45 H45            0.8094     3.6051    -0.1007 H       
  46 H46            0.1676     4.1440     1.4697 H       
  47 H47           -4.5849    -3.7928     0.9763 H       
  48 H48           -3.9968    -5.9955     1.9539 H       
  49 H49           -5.7133    -7.7471     2.1175 H       
  50 H50           -9.1575    -4.3718    -0.0131 H       
  51 H51          -11.4701    -5.1043     0.7230 H       
  52 H52          -13.0349    -7.0039     0.7286 H       
  53 H53          -12.2078    -9.2838     0.3107 H       
  54 H54           -9.8149    -9.6715    -0.1142 H       
  55 H55           -8.2426    -7.7783    -0.1281 H       
@<TRIPOS>BOND
   1    1    2 ar
   2    1   21 1
   3    1    5 ar
   4    2   17 ar
   5    2   18 1
   6    3    4 ar
   7    3    6 1
   8    3   17 ar
   9    4    5 ar
  10    4    8 1
  11    5   35 1
  12    6    7 2
  13    7    8 1
  14    7    9 1
  15    8   36 1
  16    9   10 1
  17    9   13 2
  18   10   11 2
  19   10   14 1
  20   11   12 1
  21   11   37 1
  22   12   13 1
  23   12   38 1
  24   14   15 am
  25   14   39 1
  26   15   16 2
  27   15   20 1
  28   17   40 1
  29   18   19 1
  30   19   41 1
  31   19   42 1
  32   19   43 1
  33   20   23 ar
  34   20   24 ar
  35   21   22 1
  36   22   44 1
  37   22   45 1
  38   22   46 1
  39   23   28 1
  40   23   27 ar
  41   24   25 ar
  42   24   47 1
  43   25   26 ar
  44   25   48 1
  45   26   27 ar
  46   26   49 1
  47   28   29 1
  48   28   50 1
  49   29   30 ar
  50   29   34 ar
  51   30   31 ar
  52   30   51 1
  53   31   32 ar
  54   31   52 1
  55   32   33 ar
  56   32   53 1
  57   33   34 ar
  58   33   54 1
  59   34   55 1

#	End of record

