#	Name: ASD03082314
#	Creating user name:	WinNT
#	Creation time:	15. 06. 2019 20:27

#	Modifying user name:	WinNT
#	Modification time:	15. 06. 2019 20:27

#	Program:	/corina/corina34_cracker 3.40 0067  02.08.2006

@<TRIPOS>MOLECULE
ASD03082314
  42   45    0    0    0
SMALL
NO_CHARGES


@<TRIPOS>ATOM
   1 C1            -0.0637     1.4362     0.3303 C.ar    
   2 C2             0.0128     0.0772     0.0571 C.ar    
   3 C3            -1.1469    -0.6628    -0.1027 C.ar    
   4 C4            -2.3882    -0.0415     0.0112 C.ar    
   5 C5            -2.4603     1.3150     0.2839 C.ar    
   6 C6            -1.3029     2.0517     0.4485 C.ar    
   7 O7            -1.3445    -1.9866    -0.3714 O.3     
   8 C8            -2.7145    -2.2510    -0.0163 C.3     
   9 O9            -3.3639    -0.9772    -0.1863 O.3     
  10 F10           -3.2700    -3.2045    -0.8762 F       
  11 F11           -2.8045    -2.6750     1.3139 F       
  12 N12            1.1080     2.1847     0.4924 N.pl3   
  13 C13            1.1338     3.5281     0.1214 C.2     
  14 N14            2.1509     4.3681     0.3299 N.2     
  15 N15            0.1645     4.1652    -0.4929 N.2     
  16 N16            0.5957     5.4891    -0.6772 N.am    
  17 C17            1.8492     5.5592    -0.1418 C.2     
  18 C18            2.7138     6.7590    -0.0993 C.ar    
  19 C19            2.1746     8.0252     0.1529 C.ar    
  20 C20            3.0178     9.1174     0.1835 C.ar    
  21 N21            4.3134     8.9788    -0.0209 N.ar    
  22 C22            4.8624     7.8037    -0.2619 C.ar    
  23 C23            4.0944     6.6582    -0.3046 C.ar    
  24 C24            6.3495     7.7103    -0.4874 C.3     
  25 C25           -0.0891     6.4883    -1.2681 C.2     
  26 N26           -1.2933     6.2446    -1.8220 N.am    
  27 C27           -2.0376     7.3308    -2.4642 C.3     
  28 O28            0.3793     7.6090    -1.3013 O.2     
  29 H29            0.9763    -0.4027    -0.0311 H       
  30 H30           -3.4229     1.7966     0.3719 H       
  31 H31           -1.3621     3.1089     0.6614 H       
  32 H32            1.9020     1.7685     0.8629 H       
  33 H33            1.1146     8.1461     0.3207 H       
  34 H34            2.6112    10.0990     0.3770 H       
  35 H35            4.5506     5.6995    -0.5025 H       
  36 H36            6.8521     7.5483     0.4662 H       
  37 H37            6.5638     6.8775    -1.1571 H       
  38 H38            6.7082     8.6375    -0.9342 H       
  39 H39           -1.6672     5.3499    -1.7954 H       
  40 H40           -2.9810     6.9456    -2.8510 H       
  41 H41           -2.2374     8.1154    -1.7344 H       
  42 H42           -1.4481     7.7395    -3.2849 H       
@<TRIPOS>BOND
   1    1    2 ar
   2    1   12 1
   3    1    6 ar
   4    2    3 ar
   5    2   29 1
   6    3    4 ar
   7    3    7 1
   8    4    5 ar
   9    4    9 1
  10    5    6 ar
  11    5   30 1
  12    6   31 1
  13    7    8 1
  14    8    9 1
  15    8   10 1
  16    8   11 1
  17   12   13 1
  18   12   32 1
  19   13   14 1
  20   13   15 2
  21   14   17 2
  22   15   16 1
  23   16   17 1
  24   16   25 am
  25   17   18 1
  26   18   19 ar
  27   18   23 ar
  28   19   20 ar
  29   19   33 1
  30   20   21 ar
  31   20   34 1
  32   21   22 ar
  33   22   23 ar
  34   22   24 1
  35   23   35 1
  36   24   36 1
  37   24   37 1
  38   24   38 1
  39   25   26 am
  40   25   28 2
  41   26   27 1
  42   26   39 1
  43   27   40 1
  44   27   41 1
  45   27   42 1

#	End of record

