#	Name: ASD03731540
#	Creating user name:	WinNT
#	Creation time:	15. 06. 2019 20:45

#	Modifying user name:	WinNT
#	Modification time:	15. 06. 2019 20:45

#	Program:	/corina/corina34_cracker 3.40 0067  02.08.2006

@<TRIPOS>MOLECULE
ASD03731540
  40   42    0    0    0
SMALL
NO_CHARGES


@<TRIPOS>ATOM
   1 C1             0.7587     1.4152    -0.4019 C.2     
   2 C2             0.5740    -0.0457    -0.3015 C.ar    
   3 C3             1.5324    -0.9114    -0.8353 C.ar    
   4 C4             1.3567    -2.2737    -0.7392 C.ar    
   5 C5             0.2277    -2.7882    -0.1120 C.ar    
   6 C6            -0.7282    -1.9303     0.4199 C.ar    
   7 C7            -0.5569    -0.5668     0.3328 C.ar    
   8 O8             1.7458     1.8669    -0.9497 O.2     
   9 N9            -0.1694     2.2485     0.1086 N.am    
  10 S10            0.0379     3.8876    -0.0041 S.o2    
  11 O11           -1.1002     4.4306     0.6510 O.2     
  12 O12            1.3482     4.1105     0.4985 O.2     
  13 C13           -0.0282     4.2309    -1.7841 C.3     
  14 C14            0.2506     5.6652    -2.2378 C.3     
  15 C15            1.2878     4.5686    -2.4877 C.3     
  16 O16            0.0581    -4.1313    -0.0192 O.3     
  17 C17            0.5844    -4.7678     1.0600 C.ar    
  18 C18            0.5310    -6.1519     1.1447 C.ar    
  19 C19            1.0668    -6.7969     2.2421 C.ar    
  20 C20            1.6568    -6.0638     3.2569 C.ar    
  21 C21            1.7110    -4.6838     3.1745 C.ar    
  22 C22            1.1808    -4.0352     2.0759 C.ar    
  23 C23            1.0087    -8.2999     2.3348 C.3     
  24 F24            0.3705    -8.8127     1.2003 F       
  25 F25            2.3079    -8.8131     2.4110 F       
  26 F26            0.2936    -8.6693     3.4791 F       
  27 Cl27           2.3291    -6.8769     4.6356 Cl      
  28 H28            2.4095    -0.5124    -1.3229 H       
  29 H29            2.0967    -2.9433    -1.1518 H       
  30 H30           -1.6043    -2.3338     0.9057 H       
  31 H31           -1.2977     0.0990     0.7503 H       
  32 H32           -0.9588     1.8881     0.5421 H       
  33 H33           -0.7676     3.6600    -2.3458 H       
  34 H34           -0.3051     6.0379    -3.0982 H       
  35 H35            0.4737     6.4026    -1.4667 H       
  36 H36            2.1932     4.5845    -1.8811 H       
  37 H37            1.4144     4.2198    -3.5126 H       
  38 H38            0.0704    -6.7243     0.3531 H       
  39 H39            2.1718    -4.1135     3.9675 H       
  40 H40            1.2273    -2.9582     2.0098 H       
@<TRIPOS>BOND
   1    1    2 1
   2    1    8 2
   3    1    9 am
   4    2    3 ar
   5    2    7 ar
   6    3    4 ar
   7    3   28 1
   8    4    5 ar
   9    4   29 1
  10    5    6 ar
  11    5   16 1
  12    6    7 ar
  13    6   30 1
  14    7   31 1
  15    9   10 am
  16    9   32 1
  17   10   11 2
  18   10   12 2
  19   10   13 1
  20   13   14 1
  21   13   15 1
  22   13   33 1
  23   14   15 1
  24   14   34 1
  25   14   35 1
  26   15   36 1
  27   15   37 1
  28   16   17 1
  29   17   18 ar
  30   17   22 ar
  31   18   19 ar
  32   18   38 1
  33   19   20 ar
  34   19   23 1
  35   20   21 ar
  36   20   27 1
  37   21   22 ar
  38   21   39 1
  39   22   40 1
  40   23   24 1
  41   23   25 1
  42   23   26 1

#	End of record

