#	Name: ASD01140183
#	Creating user name:	WinNT
#	Creation time:	15. 06. 2019 19:00

#	Modifying user name:	WinNT
#	Modification time:	15. 06. 2019 19:00

#	Program:	/corina/corina34_cracker 3.40 0067  02.08.2006

@<TRIPOS>MOLECULE
ASD01140183
  39   40    0    0    0
SMALL
NO_CHARGES


@<TRIPOS>ATOM
   1 C1            -0.0166     1.3749     0.0096 C.ar    
   2 C2             0.0021    -0.0041     0.0020 C.ar    
   3 C3             1.2194    -0.6831    -0.0133 C.ar    
   4 C4             2.4144     0.0345    -0.0209 C.ar    
   5 C5             2.3891     1.4134    -0.0133 C.ar    
   6 C6             1.1752     2.0868     0.0020 C.ar    
   7 C7             1.2430    -2.1660    -0.0210 C.ar    
   8 C8             2.0193    -2.8486    -0.9548 C.ar    
   9 C9             0.4908    -2.8852     0.9126 C.ar    
  10 C10            0.5187    -4.2704     0.8981 C.ar    
  11 C11            1.2878    -4.9377    -0.0363 C.ar    
  12 C12            2.0379    -4.2286    -0.9580 C.ar    
  13 C13            2.8732    -4.9659    -1.9727 C.3     
  14 O14           -0.2645    -2.2281     1.8310 O.3     
  15 O15            1.1535     3.4454     0.0091 O.3     
  16 C16           -0.1298     4.0737     0.0249 C.3     
  17 C17            0.0464     5.5935     0.0308 C.3     
  18 C18           -1.3277     6.2662     0.0476 C.3     
  19 C19           -1.1514     7.7860     0.0536 C.3     
  20 H20           -0.9595     1.9016     0.0169 H       
  21 H21           -0.9254    -0.5573     0.0083 H       
  22 H22            3.3591    -0.4888    -0.0324 H       
  23 H23            3.3147     1.9699    -0.0188 H       
  24 H24            2.6057    -2.2984    -1.6759 H       
  25 H25           -0.0608    -4.8292     1.6180 H       
  26 H26            1.3070    -6.0175    -0.0444 H       
  27 H27            2.2794    -5.1486    -2.8683 H       
  28 H28            3.7451    -4.3650    -2.2312 H       
  29 H29            3.1992    -5.9174    -1.5526 H       
  30 H30           -1.1682    -2.0456     1.5390 H       
  31 H31           -0.6908     3.7765    -0.8612 H       
  32 H32           -0.6733     3.7675     0.9187 H       
  33 H33            0.6074     5.8908     0.9168 H       
  34 H34            0.5899     5.8998    -0.8631 H       
  35 H35           -1.8886     5.9690    -0.8384 H       
  36 H36           -1.8712     5.9600     0.9415 H       
  37 H37           -0.6079     8.0923    -0.8403 H       
  38 H38           -2.1303     8.2653     0.0656 H       
  39 H39           -0.5905     8.0833     0.9396 H       
@<TRIPOS>BOND
   1    1    2 ar
   2    1    6 ar
   3    1   20 1
   4    2    3 ar
   5    2   21 1
   6    3    4 ar
   7    3    7 1
   8    4    5 ar
   9    4   22 1
  10    5    6 ar
  11    5   23 1
  12    6   15 1
  13    7    8 ar
  14    7    9 ar
  15    8   12 ar
  16    8   24 1
  17    9   10 ar
  18    9   14 1
  19   10   11 ar
  20   10   25 1
  21   11   12 ar
  22   11   26 1
  23   12   13 1
  24   13   27 1
  25   13   28 1
  26   13   29 1
  27   14   30 1
  28   15   16 1
  29   16   17 1
  30   16   31 1
  31   16   32 1
  32   17   18 1
  33   17   33 1
  34   17   34 1
  35   18   19 1
  36   18   35 1
  37   18   36 1
  38   19   37 1
  39   19   38 1
  40   19   39 1

#	End of record

