#	Name: ASD01120177
#	Creating user name:	WinNT
#	Creation time:	15. 06. 2019 18:59

#	Modifying user name:	WinNT
#	Modification time:	15. 06. 2019 18:59

#	Program:	/corina/corina34_cracker 3.40 0067  02.08.2006

@<TRIPOS>MOLECULE
ASD01120177
  29   30    0    0    0
SMALL
NO_CHARGES


@<TRIPOS>ATOM
   1 C1            -0.0168     1.3850     0.0097 C.ar    
   2 C2             0.0021    -0.0041     0.0020 C.ar    
   3 C3             1.1974    -0.6905    -0.0127 C.ar    
   4 C4             2.3983     0.0124    -0.0204 C.ar    
   5 C5             2.3742     1.4185    -0.0131 C.ar    
   6 C6             1.1516     2.0950     0.0023 C.ar    
   7 N7             3.7205    -0.3713    -0.0352 N.pl3   
   8 C8             4.5261     0.7355    -0.0375 C.2     
   9 C9             3.7749     1.8478    -0.0246 C.2     
  10 C10            6.0328     0.7091    -0.0518 C.3     
  11 Cl11           1.1164     3.8306     0.0108 Cl      
  12 Cl12          -1.4943    -0.8840     0.0116 Cl      
  13 C13            4.2771     3.2686    -0.0223 C.3     
  14 C14            4.4336     3.7565    -1.4640 C.3     
  15 C15            4.9358     5.1774    -1.4617 C.2     
  16 O16            6.4853    -0.6463    -0.0632 O.3     
  17 O17            5.1486     5.8159    -2.6231 O.3     
  18 O18            5.1469     5.7419    -0.4145 O.2     
  19 H19           -0.9616     1.9081     0.0170 H       
  20 H20            1.2019    -1.7705    -0.0178 H       
  21 H21            4.0344    -1.2890    -0.0426 H       
  22 H22            6.3967     1.2211    -0.9426 H       
  23 H23            6.4135     1.2118     0.8373 H       
  24 H24            3.5639     3.9052     0.5013 H       
  25 H25            5.2421     3.3121     0.4828 H       
  26 H26            5.1468     3.1199    -1.9876 H       
  27 H27            3.4687     3.7130    -1.9690 H       
  28 H28            7.4477    -0.7396    -0.0728 H       
  29 H29            5.4709     6.7261    -2.5710 H       
@<TRIPOS>BOND
   1    1    2 ar
   2    1    6 ar
   3    1   19 1
   4    2    3 ar
   5    2   12 1
   6    3    4 ar
   7    3   20 1
   8    4    5 ar
   9    4    7 1
  10    5    6 ar
  11    5    9 1
  12    6   11 1
  13    7    8 1
  14    7   21 1
  15    8    9 2
  16    8   10 1
  17    9   13 1
  18   10   16 1
  19   10   22 1
  20   10   23 1
  21   13   14 1
  22   13   24 1
  23   13   25 1
  24   14   15 1
  25   14   26 1
  26   14   27 1
  27   15   17 1
  28   15   18 2
  29   16   28 1
  30   17   29 1

#	End of record

