#	Name: ASD06620019
#	Creating user name:	WinNT
#	Creation time:	15. 06. 2019 21:07

#	Modifying user name:	WinNT
#	Modification time:	15. 06. 2019 21:07

#	Program:	/corina/corina34_cracker 3.40 0067  02.08.2006

@<TRIPOS>MOLECULE
ASD06620019
  59   64    0    0    0
SMALL
NO_CHARGES


@<TRIPOS>ATOM
   1 C1            -0.7761    -3.5005    -0.5164 C.ar    
   2 C2            -0.3193    -2.2179    -0.2687 C.ar    
   3 C3             1.0604    -1.9850    -0.2204 C.ar    
   4 C4             1.9218    -3.0556    -0.4240 C.ar    
   5 C5             1.3852    -4.3046    -0.6654 C.ar    
   6 N6             0.0783    -4.4890    -0.7042 N.ar    
   7 C7             0.0175    -0.0633     0.1463 C.2     
   8 N8            -0.9392    -0.9942    -0.0351 N.am    
   9 N9             1.2328    -0.6347     0.0395 N.am    
  10 O10           -0.1853     1.1151     0.3716 O.2     
  11 C11           -2.3845    -0.7586     0.0061 C.3     
  12 C12           -3.6503    -0.9620    -3.3861 C.2     
  13 C13           -4.1142    -1.5150    -4.5965 C.2     
  14 C14           -4.4645    -0.6863    -5.6166 C.2     
  15 C15           -4.3594     0.7046    -5.4506 C.2     
  16 C16           -3.9132     1.2195    -4.2857 C.2     
  17 N17           -3.5586     0.3994    -3.2539 N.pl3   
  18 N18           -3.2432    -1.5128    -2.2511 N.2     
  19 C19           -2.8993    -0.5481    -1.3945 C.2     
  20 C20           -3.0856     0.6481    -1.9942 C.2     
  21 C21           -2.8199     2.0028    -1.3898 C.3     
  22 C22           -4.1204     2.5695    -0.8167 C.3     
  23 C23           -3.8546     3.9242    -0.2123 C.2     
  24 O24           -2.7353     4.3905    -0.2375 O.2     
  25 O25           -6.9729     6.3645     0.5663 O.3     
  26 C26           -5.6662     6.9172     0.3903 C.3     
  27 C27           -4.6257     5.9420     0.9527 C.3     
  28 N28           -4.8609     4.6176     0.3562 N.am    
  29 C29           -6.2271     4.0727     0.3983 C.3     
  30 C30           -7.1896     5.1390    -0.1371 C.3     
  31 C31            2.5185     0.0542     0.1759 C.3     
  32 C32            2.8168     1.1932    -0.8011 C.3     
  33 C33            2.4946     1.5049     0.6617 C.3     
  34 H34           -1.8379    -3.6947    -0.5517 H       
  35 H35            2.9920    -2.9134    -0.3944 H       
  36 H36            2.0452    -5.1443    -0.8255 H       
  37 H37           -2.8809    -1.6217     0.4497 H       
  38 H38           -2.5913     0.1275     0.6062 H       
  39 H39           -4.1905    -2.5860    -4.7130 H       
  40 H40           -4.8213    -1.0958    -6.5501 H       
  41 H41           -4.6368     1.3650    -6.2589 H       
  42 H42           -3.8359     2.2903    -4.1687 H       
  43 H43           -2.0829     1.9067    -0.5925 H       
  44 H44           -2.4382     2.6750    -2.1583 H       
  45 H45           -4.8573     2.6656    -1.6140 H       
  46 H46           -4.5021     1.8973    -0.0482 H       
  47 H47           -5.4786     7.0773    -0.6715 H       
  48 H48           -5.5984     7.8674     0.9200 H       
  49 H49           -3.6237     6.2869     0.6976 H       
  50 H50           -4.7285     5.8802     2.0361 H       
  51 H51           -6.2856     3.1797    -0.2239 H       
  52 H52           -6.4911     3.8227     1.4259 H       
  53 H53           -8.2178     4.8098     0.0132 H       
  54 H54           -7.0075     5.2926    -1.2008 H       
  55 H55            3.3547    -0.5692     0.4926 H       
  56 H56            3.8493     1.3193    -1.1270 H       
  57 H57            2.0565     1.4300    -1.5454 H       
  58 H58            1.5223     1.9467     0.8798 H       
  59 H59            3.3151     1.8360     1.2983 H       
@<TRIPOS>BOND
   1    1    2 ar
   2    1    6 ar
   3    1   34 1
   4    2    3 ar
   5    2    8 1
   6    3    4 ar
   7    3    9 1
   8    4    5 ar
   9    4   35 1
  10    5    6 ar
  11    5   36 1
  12    7    8 am
  13    7    9 am
  14    7   10 2
  15    8   11 1
  16    9   31 1
  17   11   19 1
  18   11   37 1
  19   11   38 1
  20   12   13 1
  21   12   17 1
  22   12   18 2
  23   13   14 2
  24   13   39 1
  25   14   15 1
  26   14   40 1
  27   15   16 2
  28   15   41 1
  29   16   17 1
  30   16   42 1
  31   17   20 1
  32   18   19 1
  33   19   20 2
  34   20   21 1
  35   21   22 1
  36   21   43 1
  37   21   44 1
  38   22   23 1
  39   22   45 1
  40   22   46 1
  41   23   24 2
  42   23   28 am
  43   25   26 1
  44   25   30 1
  45   26   27 1
  46   26   47 1
  47   26   48 1
  48   27   28 1
  49   27   49 1
  50   27   50 1
  51   28   29 1
  52   29   30 1
  53   29   51 1
  54   29   52 1
  55   30   53 1
  56   30   54 1
  57   31   32 1
  58   31   33 1
  59   31   55 1
  60   32   33 1
  61   32   56 1
  62   32   57 1
  63   33   58 1
  64   33   59 1

#	End of record

