#	Name: ASD03331634
#	Creating user name:	WinNT
#	Creation time:	15. 06. 2019 20:39

#	Modifying user name:	WinNT
#	Modification time:	15. 06. 2019 20:39

#	Program:	/corina/corina34_cracker 3.40 0067  02.08.2006

@<TRIPOS>MOLECULE
ASD03331634
  44   47    0    0    0
SMALL
NO_CHARGES


@<TRIPOS>ATOM
   1 C1            -0.0469     1.4622    -0.7580 C.ar    
   2 C2            -0.0416     0.1308    -1.0670 C.ar    
   3 C3             1.1557    -0.5693    -1.1497 C.ar    
   4 C4             2.3577     0.0645    -0.9223 C.ar    
   5 C5             2.3768     1.4191    -0.6063 C.ar    
   6 C6             1.1615     2.1250    -0.5234 C.ar    
   7 N7             3.3909     2.3105    -0.3316 N.pl3   
   8 C8             2.8615     3.5546    -0.0779 C.2     
   9 C9             1.5102     3.5025    -0.1796 C.2     
  10 C10            3.6456     4.7634     0.2557 C.ar    
  11 C11            0.5507     4.6468     0.0224 C.3     
  12 C12            0.7153     5.6438    -1.0956 C.ar    
  13 C13           -0.8840     4.1151     0.0244 C.3     
  14 C14            0.9772     6.9699    -0.8062 C.ar    
  15 C15            1.1281     7.8844    -1.8317 C.ar    
  16 C16            1.0178     7.4727    -3.1467 C.ar    
  17 C17            0.7568     6.1465    -3.4362 C.ar    
  18 C18            0.6101     5.2311    -2.4107 C.ar    
  19 C19            4.7938     5.0769    -0.4728 C.ar    
  20 C20            5.5209     6.2060    -0.1565 C.ar    
  21 C21            5.1138     7.0266     0.8804 C.ar    
  22 C22            3.9767     6.7211     1.6068 C.ar    
  23 C23            3.2372     5.5984     1.2966 C.ar    
  24 N24           -1.0966     3.2883     1.2149 N.pl3   
  25 O25           -2.1114     3.4211     1.8754 O.2     
  26 O26           -0.2587     2.4679     1.5443 O.2     
  27 Cl27          -1.5423    -0.6920    -1.3576 Cl      
  28 H28           -0.9809     2.0013    -0.6996 H       
  29 H29            1.1440    -1.6211    -1.3945 H       
  30 H30            3.2827    -0.4890    -0.9888 H       
  31 H31            4.3362     2.0933    -0.3187 H       
  32 H32            0.7596     5.1322     0.9757 H       
  33 H33           -1.5818     4.9524     0.0342 H       
  34 H34           -1.0500     3.5142    -0.8697 H       
  35 H35            1.0634     7.2915     0.2212 H       
  36 H36            1.3320     8.9206    -1.6056 H       
  37 H37            1.1350     8.1874    -3.9479 H       
  38 H38            0.6702     5.8249    -4.4636 H       
  39 H39            0.4100     4.1942    -2.6370 H       
  40 H40            5.1128     4.4369    -1.2821 H       
  41 H41            6.4099     6.4495    -0.7192 H       
  42 H42            5.6865     7.9093     1.1240 H       
  43 H43            3.6644     7.3656     2.4152 H       
  44 H44            2.3468     5.3638     1.8610 H       
@<TRIPOS>BOND
   1    1    2 ar
   2    1    6 ar
   3    1   28 1
   4    2    3 ar
   5    2   27 1
   6    3    4 ar
   7    3   29 1
   8    4    5 ar
   9    4   30 1
  10    5    7 1
  11    5    6 ar
  12    6    9 1
  13    7    8 1
  14    7   31 1
  15    8    9 2
  16    8   10 1
  17    9   11 1
  18   10   19 ar
  19   10   23 ar
  20   11   13 1
  21   11   12 1
  22   11   32 1
  23   12   14 ar
  24   12   18 ar
  25   13   24 1
  26   13   33 1
  27   13   34 1
  28   14   15 ar
  29   14   35 1
  30   15   16 ar
  31   15   36 1
  32   16   17 ar
  33   16   37 1
  34   17   18 ar
  35   17   38 1
  36   18   39 1
  37   19   20 ar
  38   19   40 1
  39   20   21 ar
  40   20   41 1
  41   21   22 ar
  42   21   42 1
  43   22   23 ar
  44   22   43 1
  45   23   44 1
  46   24   25 2
  47   24   26 2

#	End of record

