#	Name: ASD01910720
#	Creating user name:	WinNT
#	Creation time:	15. 06. 2019 19:56

#	Modifying user name:	WinNT
#	Modification time:	15. 06. 2019 19:56

#	Program:	/corina/corina34_cracker 3.40 0067  02.08.2006

@<TRIPOS>MOLECULE
ASD01910720
  61   64    0    0    0
SMALL
NO_CHARGES


@<TRIPOS>ATOM
   1 C1            12.4926    -1.8928     4.2629 C.ar    
   2 C2            13.1107    -2.0559     3.0304 C.ar    
   3 C3            12.3987    -1.7382     1.8876 C.ar    
   4 C4            11.0951    -1.2689     2.0113 C.ar    
   5 N5            10.5406    -1.1266     3.2055 N.ar    
   6 C6            11.1956    -1.4221     4.3120 C.ar    
   7 N7            10.3682    -0.9460     0.8714 N.3     
   8 C8             9.0224    -0.4727     1.2217 C.3     
   9 C9             8.3209     0.0417    -0.0398 C.3     
  10 N10            8.3620    -1.0158    -1.0613 N.am    
  11 C11            9.6595    -1.6362    -1.3688 C.3     
  12 C12           10.3083    -2.0845    -0.0549 C.3     
  13 C13            7.2404    -1.4055    -1.6989 C.2     
  14 C14            7.3212    -2.3800    -2.8082 C.ar    
  15 O15            6.1624    -0.9560    -1.3622 O.2     
  16 C16            6.3483    -3.3735    -2.9390 C.ar    
  17 C17            6.4212    -4.2847    -3.9745 C.ar    
  18 C18            7.4546    -4.2210    -4.8871 C.ar    
  19 C19            8.4358    -3.2316    -4.7685 C.ar    
  20 C20            8.3647    -2.3054    -3.7281 C.ar    
  21 C21            9.5079    -3.1665    -5.7157 C.1     
  22 C22           10.3868    -3.1131    -6.4921 C.1     
  23 C23           11.4589    -3.0481    -7.4393 C.ar    
  24 C24            7.5260    -5.2198    -6.0132 C.3     
  25 C25           12.4400    -2.0602    -7.3222 C.ar    
  26 C26           13.4700    -2.0040    -8.2380 C.ar    
  27 C27           13.5330    -2.9227    -9.2706 C.ar    
  28 C28           12.5645    -3.9038    -9.3932 C.ar    
  29 C29           11.5321    -3.9759    -8.4818 C.ar    
  30 C30           10.4788    -5.0452    -8.6167 C.3     
  31 C31           14.5289    -0.9390    -8.1138 C.3     
  32 C32           14.6615    -2.8546   -10.2670 C.3     
  33 H33           13.0195    -2.1359     5.1738 H       
  34 H34           14.1246    -2.4221     2.9653 H       
  35 H35           12.8489    -1.8528     0.9127 H       
  36 H36           10.7112    -1.2933     5.2687 H       
  37 H37            8.4473    -1.2946     1.6482 H       
  38 H38            9.0989     0.3346     1.9501 H       
  39 H39            7.2844     0.2870     0.1917 H       
  40 H40            8.8361     0.9282    -0.4096 H       
  41 H41            9.5081    -2.5002    -2.0159 H       
  42 H42           10.3034    -0.9110    -1.8664 H       
  43 H43           11.3174    -2.4462    -0.2524 H       
  44 H44            9.7153    -2.8840     0.3893 H       
  45 H45            5.5370    -3.4297    -2.2284 H       
  46 H46            5.6662    -5.0509    -4.0702 H       
  47 H47            9.1195    -1.5391    -3.6314 H       
  48 H48            6.9826    -4.8343    -6.8759 H       
  49 H49            8.5683    -5.3867    -6.2853 H       
  50 H50            7.0789    -6.1609    -5.6931 H       
  51 H51           12.3918    -1.3422    -6.5169 H       
  52 H52           12.6199    -4.6174   -10.2019 H       
  53 H53           10.7872    -5.9311    -8.0618 H       
  54 H54            9.5339    -4.6768    -8.2170 H       
  55 H55           10.3532    -5.3008    -9.6688 H       
  56 H56           15.3445    -1.3083    -7.4921 H       
  57 H57           14.9109    -0.6893    -9.1037 H       
  58 H58           14.0972    -0.0490    -7.6558 H       
  59 H59           15.4938    -3.4645    -9.9157 H       
  60 H60           14.3180    -3.2293   -11.2312 H       
  61 H61           14.9890    -1.8205   -10.3748 H       
@<TRIPOS>BOND
   1    1    2 ar
   2    1    6 ar
   3    1   33 1
   4    2    3 ar
   5    2   34 1
   6    3    4 ar
   7    3   35 1
   8    4    5 ar
   9    4    7 1
  10    5    6 ar
  11    6   36 1
  12    7    8 1
  13    7   12 1
  14    8    9 1
  15    8   37 1
  16    8   38 1
  17    9   10 1
  18    9   39 1
  19    9   40 1
  20   10   11 1
  21   10   13 am
  22   11   12 1
  23   11   41 1
  24   11   42 1
  25   12   43 1
  26   12   44 1
  27   13   14 1
  28   13   15 2
  29   14   16 ar
  30   14   20 ar
  31   16   17 ar
  32   16   45 1
  33   17   18 ar
  34   17   46 1
  35   18   19 ar
  36   18   24 1
  37   19   20 ar
  38   19   21 1
  39   20   47 1
  40   21   22 3
  41   22   23 1
  42   23   25 ar
  43   23   29 ar
  44   24   48 1
  45   24   49 1
  46   24   50 1
  47   25   26 ar
  48   25   51 1
  49   26   27 ar
  50   26   31 1
  51   27   28 ar
  52   27   32 1
  53   28   29 ar
  54   28   52 1
  55   29   30 1
  56   30   53 1
  57   30   54 1
  58   30   55 1
  59   31   56 1
  60   31   57 1
  61   31   58 1
  62   32   59 1
  63   32   60 1
  64   32   61 1

#	End of record

