#	Name: ASD01914103
#	Creating user name:	WinNT
#	Creation time:	15. 06. 2019 20:02

#	Modifying user name:	WinNT
#	Modification time:	15. 06. 2019 20:02

#	Program:	/corina/corina34_cracker 3.40 0067  02.08.2006

@<TRIPOS>MOLECULE
ASD01914103
  46   48    0    0    0
SMALL
NO_CHARGES


@<TRIPOS>ATOM
   1 C1            -0.0167     1.3810     0.0096 C.ar    
   2 C2             0.0021    -0.0041     0.0020 C.ar    
   3 C3             2.4001     0.0319    -0.0208 C.ar    
   4 C4             2.3774     1.4190    -0.0135 C.ar    
   5 O5             3.5874    -0.6291    -0.0366 O.3     
   6 C6             1.2093    -0.6795    -0.0132 C.ar    
   7 C7             1.1696     2.0900     0.0021 C.ar    
   8 F8            -1.1586    -0.6954     0.0099 F       
   9 C9             3.5349    -2.0571    -0.0433 C.3     
  10 C10            4.9362    -2.6112    -0.0608 C.ar    
  11 N11            5.1172    -3.9180    -0.0693 N.ar    
  12 C12            6.3202    -4.4535    -0.0847 C.ar    
  13 C13            7.4569    -3.6445    -0.0921 C.ar    
  14 C14            7.2971    -2.2534    -0.0834 C.ar    
  15 C15            6.0119    -1.7411    -0.0734 C.ar    
  16 C16            8.8074    -4.2458    -0.1084 C.2     
  17 N17            8.9482    -5.5862    -0.1162 N.am    
  18 C18           10.2864    -6.1821    -0.1323 C.3     
  19 O19            9.7908    -3.5314    -0.1147 O.2     
  20 C20           10.1655    -7.7073    -0.1384 C.3     
  21 C21           11.5631    -8.3296    -0.1553 C.3     
  22 C22           12.4857    -7.7567     0.9225 C.3     
  23 C23           11.5580    -9.8687    -0.2157 C.3     
  24 O24           12.6115    -9.7213    -1.1888 O.3     
  25 C25           12.2023    -8.3855    -1.5556 C.3     
  26 H26           -0.9596     1.9075     0.0170 H       
  27 H27            3.3037     1.9743    -0.0197 H       
  28 H28            1.2246    -1.7594    -0.0188 H       
  29 H29            1.1526     3.1698     0.0078 H       
  30 H30            3.0175    -2.4058     0.8504 H       
  31 H31            2.9987    -2.3968    -0.9294 H       
  32 H32            6.4279    -5.5281    -0.0913 H       
  33 H33            8.1549    -1.5972    -0.0887 H       
  34 H34            5.8501    -0.6733    -0.0665 H       
  35 H35            8.1634    -6.1563    -0.1111 H       
  36 H36           10.8185    -5.8562    -1.0261 H       
  37 H37           10.8362    -5.8647     0.7538 H       
  38 H38            9.6334    -8.0331     0.7553 H       
  39 H39            9.6158    -8.0246    -1.0245 H       
  40 H40           12.0533    -7.9405     1.9061 H       
  41 H41           13.4615    -8.2381     0.8589 H       
  42 H42           12.5994    -6.6833     0.7704 H       
  43 H43           11.8767   -10.3475     0.7103 H       
  44 H44           10.6387   -10.2911    -0.6215 H       
  45 H45           11.4794    -8.3539    -2.3708 H       
  46 H46           13.0320    -7.6920    -1.6922 H       
@<TRIPOS>BOND
   1    1    2 ar
   2    1    7 ar
   3    1   26 1
   4    2    6 ar
   5    2    8 1
   6    3    4 ar
   7    3    5 1
   8    3    6 ar
   9    4    7 ar
  10    4   27 1
  11    5    9 1
  12    6   28 1
  13    7   29 1
  14    9   10 1
  15    9   30 1
  16    9   31 1
  17   10   11 ar
  18   10   15 ar
  19   11   12 ar
  20   12   13 ar
  21   12   32 1
  22   13   14 ar
  23   13   16 1
  24   14   15 ar
  25   14   33 1
  26   15   34 1
  27   16   17 am
  28   16   19 2
  29   17   18 1
  30   17   35 1
  31   18   20 1
  32   18   36 1
  33   18   37 1
  34   20   21 1
  35   20   38 1
  36   20   39 1
  37   21   22 1
  38   21   23 1
  39   21   25 1
  40   22   40 1
  41   22   41 1
  42   22   42 1
  43   23   24 1
  44   23   43 1
  45   23   44 1
  46   24   25 1
  47   25   45 1
  48   25   46 1

#	End of record

