#	Name: ASD01813615
#	Creating user name:	WinNT
#	Creation time:	15. 06. 2019 19:30

#	Modifying user name:	WinNT
#	Modification time:	15. 06. 2019 19:30

#	Program:	/corina/corina34_cracker 3.40 0067  02.08.2006

@<TRIPOS>MOLECULE
ASD01813615
  46   49    0    0    0
SMALL
NO_CHARGES


@<TRIPOS>ATOM
   1 C1             6.8891     1.6611    -0.3638 C.ar    
   2 C2             6.9752     0.2774    -0.3754 C.ar    
   3 C3             5.8411    -0.5010    -0.2643 C.ar    
   4 C4             4.5913     0.1026    -0.1381 C.ar    
   5 C5             4.5055     1.5053    -0.1260 C.ar    
   6 C6             5.6619     2.2811    -0.2398 C.ar    
   7 N7             3.4507    -0.6647    -0.0274 N.pl3   
   8 C8             2.2280    -0.1329     0.0949 C.2     
   9 C9             2.0183     1.2311     0.1187 C.2     
  10 C10            3.1781     2.1310     0.0079 C.2     
  11 O11            3.0458     3.3424     0.0244 O.2     
  12 C12            0.6601     1.7759     0.2534 C.2     
  13 O13            0.4682     3.1101     0.2755 O.3     
  14 O14           -0.2903     1.0235     0.3450 O.2     
  15 C15            3.5826    -2.1236    -0.0447 C.3     
  16 C16            3.4398    -2.6241    -1.4590 C.ar    
  17 N17            2.2374    -2.8234    -1.9595 N.ar    
  18 C18            2.0644    -3.2628    -3.1998 C.ar    
  19 C19            3.1618    -3.5285    -4.0163 C.ar    
  20 C20            4.4366    -3.3279    -3.5159 C.ar    
  21 C21            4.5722    -2.8625    -2.2156 C.ar    
  22 F22            5.9423    -1.8481    -0.2782 F       
  23 F23            5.5797     3.6296    -0.2278 F       
  24 C24            0.6924    -3.4730    -3.7206 C.ar    
  25 C25           -0.4218    -3.3157    -2.8816 C.ar    
  26 C26           -1.6865    -3.5253    -3.4223 C.ar    
  27 C27           -1.8008    -3.8772    -4.7517 C.ar    
  28 N28           -0.7322    -4.0176    -5.5144 N.ar    
  29 C29            0.4863    -3.8243    -5.0516 C.ar    
  30 O30           -0.2696    -2.9692    -1.5789 O.3     
  31 C31           -1.4496    -2.9391    -0.7735 C.3     
  32 H32            7.7863     2.2564    -0.4476 H       
  33 H33            7.9407    -0.1966    -0.4728 H       
  34 H34            1.3774    -0.7934     0.1772 H       
  35 H35           -0.4430     3.4211     0.3657 H       
  36 H36            4.5618    -2.4046     0.3430 H       
  37 H37            2.8047    -2.5661     0.5775 H       
  38 H38            3.0197    -3.8864    -5.0254 H       
  39 H39            5.3062    -3.5251    -4.1252 H       
  40 H40            5.5533    -2.6954    -1.7960 H       
  41 H41           -2.5683    -3.4143    -2.8087 H       
  42 H42           -2.7807    -4.0408    -5.1753 H       
  43 H43            1.3340    -3.9496    -5.7090 H       
  44 H44           -2.1880    -2.2834    -1.2351 H       
  45 H45           -1.8590    -3.9460    -0.6910 H       
  46 H46           -1.2021    -2.5650     0.2199 H       
@<TRIPOS>BOND
   1    1    2 ar
   2    1    6 ar
   3    1   32 1
   4    2    3 ar
   5    2   33 1
   6    3    4 ar
   7    3   22 1
   8    4    5 ar
   9    4    7 1
  10    5    6 ar
  11    5   10 1
  12    6   23 1
  13    7    8 1
  14    7   15 1
  15    8    9 2
  16    8   34 1
  17    9   10 1
  18    9   12 1
  19   10   11 2
  20   12   13 1
  21   12   14 2
  22   13   35 1
  23   15   16 1
  24   15   36 1
  25   15   37 1
  26   16   17 ar
  27   16   21 ar
  28   17   18 ar
  29   18   19 ar
  30   18   24 1
  31   19   20 ar
  32   19   38 1
  33   20   21 ar
  34   20   39 1
  35   21   40 1
  36   24   25 ar
  37   24   29 ar
  38   25   26 ar
  39   25   30 1
  40   26   27 ar
  41   26   41 1
  42   27   28 ar
  43   27   42 1
  44   28   29 ar
  45   29   43 1
  46   30   31 1
  47   31   44 1
  48   31   45 1
  49   31   46 1

#	End of record

