#	Name: ASD01150152
#	Creating user name:	WinNT
#	Creation time:	15. 06. 2019 19:03

#	Modifying user name:	WinNT
#	Modification time:	15. 06. 2019 19:03

#	Program:	/corina/corina34_cracker 3.40 0067  02.08.2006

@<TRIPOS>MOLECULE
ASD01150152
  62   64    0    0    0
SMALL
NO_CHARGES


@<TRIPOS>ATOM
   1 N1            -1.4776     1.4082    -1.6569 N.pl3   
   2 C2            -1.4484     0.0284    -1.6892 C.2     
   3 C3            -2.6681    -0.3983    -1.1792 C.2     
   4 N4            -3.3702     0.6938    -0.8664 N.2     
   5 C5            -2.6699     1.7648    -1.1408 C.2     
   6 C6            -0.5017    -0.9334    -2.1032 C.2     
   7 N7            -0.8033    -2.2440    -1.9941 N.am    
   8 C8            -1.9877    -2.6429    -1.4992 C.2     
   9 N9            -2.9178    -1.7584    -1.0928 N.am    
  10 O10            0.5745    -0.5842    -2.5540 O.2     
  11 C11           -4.1963    -2.2348    -0.5592 C.3     
  12 O12           -2.2249    -3.8326    -1.4160 O.2     
  13 C13            0.1747    -3.2474    -2.4219 C.3     
  14 C14            1.0635    -3.6099    -1.2602 C.ar    
  15 C15            0.7113    -4.6484    -0.4184 C.ar    
  16 C16            1.5260    -4.9813     0.6472 C.ar    
  17 C17            2.6944    -4.2750     0.8714 C.ar    
  18 C18            3.0464    -3.2358     0.0287 C.ar    
  19 C19            2.2336    -2.9075    -1.0400 C.ar    
  20 Cl20           3.7180    -4.6922     2.2101 Cl      
  21 C21           -3.1316     3.1826    -0.9225 C.3     
  22 C22           -2.7311     3.6388     0.4820 C.3     
  23 C23           -0.4118     2.3130    -2.0949 C.3     
  24 C24           -4.0814    -2.4175     0.9323 C.2     
  25 O25           -3.0346    -2.1737     1.4942 O.2     
  26 N26           -5.1419    -2.8517     1.6417 N.am    
  27 C27           -5.0302    -3.0293     3.0916 C.3     
  28 C28           -6.4063    -3.1461     0.9630 C.3     
  29 C29           -6.7954    -4.6035     1.2191 C.3     
  30 C30           -7.5014    -2.2236     1.5020 C.3     
  31 C31           -3.9492    -4.0683     3.3964 C.3     
  32 C32           -4.6537    -1.6962     3.7412 C.3     
  33 H33           -4.9756    -1.5044    -0.7768 H       
  34 H34           -4.4514    -3.1874    -1.0233 H       
  35 H35           -0.3477    -4.1380    -2.7714 H       
  36 H36            0.7818    -2.8412    -3.2310 H       
  37 H37           -0.2010    -5.1994    -0.5933 H       
  38 H38            1.2506    -5.7924     1.3050 H       
  39 H39            3.9583    -2.6841     0.2032 H       
  40 H40            2.5083    -2.0963    -1.6979 H       
  41 H41           -2.6667     3.8342    -1.6624 H       
  42 H42           -4.2156     3.2317    -1.0251 H       
  43 H43           -3.1959     2.9873     1.2220 H       
  44 H44           -1.6470     3.5898     0.5846 H       
  45 H45           -3.0650     4.6643     0.6399 H       
  46 H46           -0.5479     2.5510    -3.1498 H       
  47 H47           -0.4498     3.2304    -1.5075 H       
  48 H48            0.5554     1.8306    -1.9531 H       
  49 H49           -5.9853    -3.3710     3.4905 H       
  50 H50           -6.2898    -2.9842    -0.1086 H       
  51 H51           -7.0135    -4.7405     2.2783 H       
  52 H52           -7.6787    -4.8525     0.6311 H       
  53 H53           -5.9711    -5.2557     0.9306 H       
  54 H54           -7.1672    -1.1879     1.4398 H       
  55 H55           -8.4071    -2.3494     0.9087 H       
  56 H56           -7.7101    -2.4762     2.5416 H       
  57 H57           -3.9377    -4.2776     4.4660 H       
  58 H58           -4.1629    -4.9863     2.8488 H       
  59 H59           -2.9769    -3.6813     3.0914 H       
  60 H60           -5.3572    -0.9262     3.4244 H       
  61 H61           -4.6902    -1.7975     4.8259 H       
  62 H62           -3.6457    -1.4152     3.4362 H       
@<TRIPOS>BOND
   1    1    2 1
   2    1   23 1
   3    1    5 1
   4    2    3 2
   5    2    6 1
   6    3    4 1
   7    3    9 1
   8    4    5 2
   9    5   21 1
  10    6    7 am
  11    6   10 2
  12    7    8 am
  13    7   13 1
  14    8    9 am
  15    8   12 2
  16    9   11 1
  17   11   24 1
  18   11   33 1
  19   11   34 1
  20   13   14 1
  21   13   35 1
  22   13   36 1
  23   14   15 ar
  24   14   19 ar
  25   15   16 ar
  26   15   37 1
  27   16   17 ar
  28   16   38 1
  29   17   18 ar
  30   17   20 1
  31   18   19 ar
  32   18   39 1
  33   19   40 1
  34   21   22 1
  35   21   41 1
  36   21   42 1
  37   22   43 1
  38   22   44 1
  39   22   45 1
  40   23   46 1
  41   23   47 1
  42   23   48 1
  43   24   25 2
  44   24   26 am
  45   26   27 1
  46   26   28 1
  47   27   31 1
  48   27   32 1
  49   27   49 1
  50   28   29 1
  51   28   30 1
  52   28   50 1
  53   29   51 1
  54   29   52 1
  55   29   53 1
  56   30   54 1
  57   30   55 1
  58   30   56 1
  59   31   57 1
  60   31   58 1
  61   31   59 1
  62   32   60 1
  63   32   61 1
  64   32   62 1

#	End of record

