#	Name: ASD01840163
#	Creating user name:	WinNT
#	Creation time:	15. 06. 2019 19:37

#	Modifying user name:	WinNT
#	Modification time:	15. 06. 2019 19:37

#	Program:	/corina/corina34_cracker 3.40 0067  02.08.2006

@<TRIPOS>MOLECULE
ASD01840163
  46   49    0    0    0
SMALL
NO_CHARGES


@<TRIPOS>ATOM
   1 C1            -1.3029     1.4051    -0.0408 C.3     
   2 C2            -0.8258    -0.0543     0.0703 C.3     
   3 N3            -0.4101    -0.6378    -1.2076 N.am    
   4 C4            -0.4538    -1.9732    -1.3846 C.2     
   5 C5            -0.0389    -2.5556    -2.6601 C.2     
   6 O6            -0.8388    -2.6946    -0.4826 O.2     
   7 C7            -0.0463    -3.8833    -2.9357 C.2     
   8 C8             0.4116    -4.2118    -4.2731 C.ar    
   9 C9             0.7696    -3.0735    -5.0078 C.ar    
  10 S10            0.5264    -1.6287    -4.0362 S.3     
  11 C11            0.5407    -5.4667    -4.9108 C.ar    
  12 C12            1.0078    -5.4896    -6.2066 C.ar    
  13 N13            1.3214    -4.3617    -6.8208 N.ar    
  14 N14            1.2101    -3.2157    -6.2600 N.ar    
  15 C15            1.1622    -6.8046    -6.9261 C.3     
  16 C16            0.1786    -6.7420    -4.1942 C.3     
  17 N17           -0.4556    -4.8431    -2.0199 N.pl3   
  18 C18            0.3417     0.4962     0.9092 C.3     
  19 N19            0.1010     1.7784     0.2193 N.am    
  20 C20            0.8590     2.8571    -0.0608 C.2     
  21 O21            2.0070     2.9126     0.3348 O.2     
  22 C22            0.2941     3.9729    -0.8493 C.ar    
  23 C23           -1.0662     3.9924    -1.1616 C.ar    
  24 C24           -1.5870     5.0367    -1.8973 C.ar    
  25 C25           -0.7640     6.0631    -2.3258 C.ar    
  26 C26            0.5852     6.0499    -2.0197 C.ar    
  27 C27            1.1176     5.0144    -1.2798 C.ar    
  28 H28           -1.6530     1.6783    -1.0362 H       
  29 H29           -1.9907     1.7039     0.7503 H       
  30 H30           -1.5056    -0.6969     0.6297 H       
  31 H31           -0.1033    -0.0631    -1.9263 H       
  32 H32            0.2359    -7.0441    -7.4483 H       
  33 H33            1.9769    -6.7312    -7.6466 H       
  34 H34            1.3856    -7.5899    -6.2039 H       
  35 H35           -0.8930    -6.9187    -4.2861 H       
  36 H36            0.7236    -7.5753    -4.6377 H       
  37 H37            0.4434    -6.6544    -3.1405 H       
  38 H38           -0.4840    -4.6300    -1.0740 H       
  39 H39           -0.7130    -5.7268    -2.3259 H       
  40 H40            0.1370     0.5280     1.9794 H       
  41 H41            1.3046     0.0438     0.6723 H       
  42 H42           -1.7094     3.1914    -0.8283 H       
  43 H43           -2.6393     5.0530    -2.1395 H       
  44 H44           -1.1766     6.8780    -2.9020 H       
  45 H45            1.2222     6.8541    -2.3572 H       
  46 H46            2.1701     5.0075    -1.0377 H       
@<TRIPOS>BOND
   1    1    2 1
   2    1   19 1
   3    1   28 1
   4    1   29 1
   5    2    3 1
   6    2   18 1
   7    2   30 1
   8    3    4 am
   9    3   31 1
  10    4    5 1
  11    4    6 2
  12    5    7 2
  13    5   10 1
  14    7    8 1
  15    7   17 1
  16    8    9 ar
  17    8   11 ar
  18    9   10 1
  19    9   14 ar
  20   11   12 ar
  21   11   16 1
  22   12   13 ar
  23   12   15 1
  24   13   14 ar
  25   15   32 1
  26   15   33 1
  27   15   34 1
  28   16   35 1
  29   16   36 1
  30   16   37 1
  31   17   38 1
  32   17   39 1
  33   18   19 1
  34   18   40 1
  35   18   41 1
  36   19   20 am
  37   20   21 2
  38   20   22 1
  39   22   23 ar
  40   22   27 ar
  41   23   24 ar
  42   23   42 1
  43   24   25 ar
  44   24   43 1
  45   25   26 ar
  46   25   44 1
  47   26   27 ar
  48   26   45 1
  49   27   46 1

#	End of record

