#	Name: ASD05940073
#	Creating user name:	WinNT
#	Creation time:	15. 06. 2019 21:04

#	Modifying user name:	WinNT
#	Modification time:	15. 06. 2019 21:04

#	Program:	/corina/corina34_cracker 3.40 0067  02.08.2006

@<TRIPOS>MOLECULE
ASD05940073
  60   63    0    0    0
SMALL
NO_CHARGES


@<TRIPOS>ATOM
   1 N1            -0.0159     1.3182     0.0093 N.ar    
   2 C2             0.0021    -0.0041     0.0020 C.ar    
   3 N3             1.1319    -0.6930    -0.0105 N.ar    
   4 C4             2.3066    -0.0681    -0.0163 C.ar    
   5 C5             2.3274     1.3257    -0.0126 C.ar    
   6 C6             1.1197     2.0168     0.0022 C.ar    
   7 N7             3.5574     2.0049    -0.0281 N.am    
   8 N8             1.0977     3.4049     0.0098 N.pl3   
   9 O9            -1.1750    -0.6756     0.0081 O.3     
  10 C10           -2.3694     0.1089     0.0221 C.3     
  11 C11           -3.5875    -0.8168     0.0271 C.3     
  12 N12            3.4912    -0.7844    -0.0204 N.3     
  13 C13            4.5325    -0.1235    -0.8134 C.3     
  14 C14            4.6626     1.3204    -0.4025 C.2     
  15 O15            5.7474     1.8633    -0.4070 O.2     
  16 C16            3.2721    -2.1615    -0.4823 C.3     
  17 C17            4.6021    -2.8332    -0.7082 C.ar    
  18 C18            5.2122    -3.5219     0.3232 C.ar    
  19 C19            6.4322    -4.1382     0.1166 C.ar    
  20 C20            7.0424    -4.0656    -1.1227 C.ar    
  21 C21            6.4311    -3.3760    -2.1549 C.ar    
  22 C22            5.2088    -2.7650    -1.9488 C.ar    
  23 N23            8.2141    -2.3459    -3.4451 N.3     
  24 C24           -4.8663     0.0231     0.0422 C.3     
  25 C25           -6.0845    -0.9026     0.0472 C.3     
  26 C26            7.0954    -3.2960    -3.5052 C.3     
  27 C27            9.0328    -2.4154    -4.6694 C.3     
  28 C28            9.0672    -0.9975    -5.2775 C.3     
  29 C29            8.7405    -0.0885    -4.0635 C.3     
  30 C30            7.7242    -0.9602    -3.2844 C.3     
  31 Cl31           8.5748    -4.8389    -1.3828 Cl      
  32 H32            3.6127     2.9401     0.2234 H       
  33 H33            1.9299     3.9032     0.0049 H       
  34 H34            0.2501     3.8765     0.0201 H       
  35 H35           -2.3836     0.7330     0.9156 H       
  36 H36           -2.3983     0.7426    -0.8643 H       
  37 H37           -3.5733    -1.4409    -0.8664 H       
  38 H38           -3.5587    -1.4505     0.9135 H       
  39 H39            5.4839    -0.6312    -0.6548 H       
  40 H40            4.2696    -0.1760    -1.8699 H       
  41 H41            2.7102    -2.7126     0.2718 H       
  42 H42            2.7095    -2.1464    -1.4158 H       
  43 H43            4.7359    -3.5782     1.2909 H       
  44 H44            6.9090    -4.6760     0.9227 H       
  45 H45            4.7315    -2.2268    -2.7543 H       
  46 H46           -4.8806     0.6473     0.9357 H       
  47 H47           -4.8952     0.6569    -0.8442 H       
  48 H48           -6.9955    -0.3042     0.0579 H       
  49 H49           -6.0702    -1.5267    -0.8463 H       
  50 H50           -6.0556    -1.5363     0.9336 H       
  51 H51            7.4697    -4.2808    -3.7849 H       
  52 H52            6.3714    -2.9585    -4.2469 H       
  53 H53           10.0442    -2.7371    -4.4213 H       
  54 H54            8.5829    -3.1116    -5.3772 H       
  55 H55           10.0576    -0.7715    -5.6727 H       
  56 H56            8.3084    -0.8922    -6.0530 H       
  57 H57            9.6323     0.1000    -3.4657 H       
  58 H58            8.2847     0.8471    -4.3876 H       
  59 H59            6.7280    -0.8576    -3.7146 H       
  60 H60            7.7141    -0.6811    -2.2308 H       
@<TRIPOS>BOND
   1    1    2 ar
   2    1    6 ar
   3    2    3 ar
   4    2    9 1
   5    3    4 ar
   6    4    5 ar
   7    4   12 1
   8    5    6 ar
   9    5    7 1
  10    6    8 1
  11    7   14 am
  12    7   32 1
  13    8   33 1
  14    8   34 1
  15    9   10 1
  16   10   11 1
  17   10   35 1
  18   10   36 1
  19   11   24 1
  20   11   37 1
  21   11   38 1
  22   12   13 1
  23   12   16 1
  24   13   14 1
  25   13   39 1
  26   13   40 1
  27   14   15 2
  28   16   17 1
  29   16   41 1
  30   16   42 1
  31   17   18 ar
  32   17   22 ar
  33   18   19 ar
  34   18   43 1
  35   19   20 ar
  36   19   44 1
  37   20   21 ar
  38   20   31 1
  39   21   22 ar
  40   21   26 1
  41   22   45 1
  42   23   27 1
  43   23   26 1
  44   23   30 1
  45   24   25 1
  46   24   46 1
  47   24   47 1
  48   25   48 1
  49   25   49 1
  50   25   50 1
  51   26   51 1
  52   26   52 1
  53   27   28 1
  54   27   53 1
  55   27   54 1
  56   28   29 1
  57   28   55 1
  58   28   56 1
  59   29   30 1
  60   29   57 1
  61   29   58 1
  62   30   59 1
  63   30   60 1

#	End of record

