#	Name: ASD01320072
#	Creating user name:	WinNT
#	Creation time:	15. 06. 2019 19:15

#	Modifying user name:	WinNT
#	Modification time:	15. 06. 2019 19:15

#	Program:	/corina/corina34_cracker 3.40 0067  02.08.2006

@<TRIPOS>MOLECULE
ASD01320072
  49   50    0    0    0
SMALL
NO_CHARGES


@<TRIPOS>ATOM
   1 C1            -0.0477     1.3672    -0.1339 C.3     
   2 C2            -0.0312    -0.1596    -0.0362 C.3     
   3 N3             0.6945    -0.5639     1.1704 N.ar    
   4 C4             0.0280    -0.7001     2.2963 C.ar    
   5 C5            -1.4559    -0.4375     2.3149 C.3     
   6 C6             0.6716    -1.0843     3.4744 C.ar    
   7 C7            -0.0906    -1.2337     4.7300 C.2     
   8 O8            -0.5855    -2.3056     5.0162 O.2     
   9 O9            -0.2372    -0.1814     5.5584 O.3     
  10 C10           -0.9989    -0.4012     6.7749 C.3     
  11 C11           -0.4800     0.5259     7.8760 C.3     
  12 C12           -2.4765    -0.1038     6.5122 C.3     
  13 C13            2.0601    -1.3277     3.4470 C.ar    
  14 C14            2.7349    -1.1693     2.2191 C.ar    
  15 C15            1.9984    -0.7850     1.0885 C.ar    
  16 C16            2.6903    -0.6131    -0.2130 C.2     
  17 O17            3.2126     0.4478    -0.4872 O.2     
  18 O18            2.7388    -1.6339    -1.0898 O.3     
  19 C19            4.1886    -1.4085     2.1238 C.2     
  20 O20            4.6053    -2.5174     1.8546 O.2     
  21 O21            5.0531    -0.3970     2.3354 O.3     
  22 C22            2.7864    -1.7361     4.6686 C.ar    
  23 C23            2.9223    -3.0888     4.9841 C.ar    
  24 C24            3.6016    -3.4632     6.1250 C.ar    
  25 C25            4.1475    -2.5015     6.9567 C.ar    
  26 C26            4.0171    -1.1587     6.6510 C.ar    
  27 C27            3.3448    -0.7698     5.5092 C.ar    
  28 Cl28           3.1824     0.9156     5.1262 Cl      
  29 H29            0.9757     1.7392    -0.1835 H       
  30 H30           -0.5876     1.6681    -1.0317 H       
  31 H31           -0.5428     1.7821     0.7441 H       
  32 H32           -1.0546    -0.5315     0.0135 H       
  33 H33            0.4639    -0.5745    -0.9142 H       
  34 H34           -1.9911    -1.3612     2.0950 H       
  35 H35           -1.7482    -0.0740     3.3001 H       
  36 H36           -1.7015     0.3126     1.5632 H       
  37 H37           -0.8875    -1.4384     7.0909 H       
  38 H38           -0.5913     1.5631     7.5600 H       
  39 H39           -1.0518     0.3609     8.7892 H       
  40 H40            0.5727     0.3141     8.0631 H       
  41 H41           -2.8462    -0.7643     5.7278 H       
  42 H42           -3.0483    -0.2688     7.4254 H       
  43 H43           -2.5878     0.9334     6.1962 H       
  44 H44            3.2006    -1.4743    -1.9243 H       
  45 H45            5.9952    -0.6021     2.2620 H       
  46 H46            2.4963    -3.8409     4.3366 H       
  47 H47            3.7072    -4.5098     6.3699 H       
  48 H48            4.6775    -2.8006     7.8489 H       
  49 H49            4.4456    -0.4131     7.3044 H       
@<TRIPOS>BOND
   1    1    2 1
   2    1   29 1
   3    1   30 1
   4    1   31 1
   5    2    3 1
   6    2   32 1
   7    2   33 1
   8    3    4 ar
   9    3   15 ar
  10    4    5 1
  11    4    6 ar
  12    5   34 1
  13    5   35 1
  14    5   36 1
  15    6    7 1
  16    6   13 ar
  17    7    8 2
  18    7    9 1
  19    9   10 1
  20   10   11 1
  21   10   12 1
  22   10   37 1
  23   11   38 1
  24   11   39 1
  25   11   40 1
  26   12   41 1
  27   12   42 1
  28   12   43 1
  29   13   14 ar
  30   13   22 1
  31   14   15 ar
  32   14   19 1
  33   15   16 1
  34   16   17 2
  35   16   18 1
  36   18   44 1
  37   19   20 2
  38   19   21 1
  39   21   45 1
  40   22   23 ar
  41   22   27 ar
  42   23   24 ar
  43   23   46 1
  44   24   25 ar
  45   24   47 1
  46   25   26 ar
  47   25   48 1
  48   26   27 ar
  49   26   49 1
  50   27   28 1

#	End of record

