#	Name: ASD06020154
#	Creating user name:	WinNT
#	Creation time:	15. 06. 2019 21:04

#	Modifying user name:	WinNT
#	Modification time:	15. 06. 2019 21:04

#	Program:	/corina/corina34_cracker 3.40 0067  02.08.2006

@<TRIPOS>MOLECULE
ASD06020154
  21   21    0    0    0
SMALL
NO_CHARGES


@<TRIPOS>ATOM
   1 C1            -0.0180     1.4754     0.0102 C.2     
   2 C2             0.0021    -0.0041     0.0020 C.ar    
   3 C3             1.2209    -0.6849    -0.0133 C.ar    
   4 C4             1.2419    -2.0636    -0.0209 C.ar    
   5 C5             0.0418    -2.7809    -0.0128 C.ar    
   6 C6            -1.1790    -2.0986     0.0030 C.ar    
   7 C7            -1.1967    -0.7172     0.0155 C.ar    
   8 O8             1.0253     2.0968     0.0035 O.2     
   9 O9            -1.1934     2.1329     0.0193 O.3     
  10 C10            0.0632    -4.2578    -0.0214 C.2     
  11 O11            0.0827    -4.8710     1.0269 O.2     
  12 O12            0.0611    -4.9246    -1.1920 O.3     
  13 C13            0.0829    -6.3749    -1.1244 C.3     
  14 F14           -2.3398    -2.7898     0.0108 F       
  15 Cl15           2.7582    -2.9086    -0.0410 Cl      
  16 H16            2.1481    -0.1312    -0.0195 H       
  17 H17           -2.1388    -0.1894     0.0314 H       
  18 H18           -1.1559     3.0991     0.0244 H       
  19 H19            0.9830    -6.7009    -0.6032 H       
  20 H20           -0.7967    -6.7268    -0.5854 H       
  21 H21            0.0788    -6.7857    -2.1340 H       
@<TRIPOS>BOND
   1    1    2 1
   2    1    8 2
   3    1    9 1
   4    2    3 ar
   5    2    7 ar
   6    3    4 ar
   7    3   16 1
   8    4    5 ar
   9    4   15 1
  10    5    6 ar
  11    5   10 1
  12    6    7 ar
  13    6   14 1
  14    7   17 1
  15    9   18 1
  16   10   11 2
  17   10   12 1
  18   12   13 1
  19   13   19 1
  20   13   20 1
  21   13   21 1

#	End of record

