#	Name: ASD01411086
#	Creating user name:	WinNT
#	Creation time:	15. 06. 2019 19:19

#	Modifying user name:	WinNT
#	Modification time:	15. 06. 2019 19:19

#	Program:	/corina/corina34_cracker 3.40 0067  02.08.2006

@<TRIPOS>MOLECULE
ASD01411086
  37   40    0    0    0
SMALL
NO_CHARGES


@<TRIPOS>ATOM
   1 C1            -0.1310     1.5482     0.0184 C.2     
   2 C2            -0.2012     0.1052     0.0413 C.ar    
   3 C3             1.1798     1.8852     0.0236 C.2     
   4 C4            -1.2439     2.5658    -0.0016 C.3     
   5 C5             1.1429    -0.3502     0.0601 C.ar    
   6 C6            -1.2718    -0.7962     0.0466 C.ar    
   7 C7             1.6531     3.3196     0.0023 C.3     
   8 N8             1.9479     0.7544     0.0493 N.pl3   
   9 C9            -0.6433     3.9283     0.3735 C.3     
  10 C10            1.4325    -1.7134     0.0839 C.ar    
  11 C11           -0.9545    -2.1431     0.0705 C.ar    
  12 Cl12          -2.9197    -0.2507     0.0248 Cl      
  13 O13            0.5499     4.1488    -0.3839 O.3     
  14 C14            2.1396     3.7235     1.3955 C.3     
  15 C15            2.7930     3.4722    -1.0068 C.3     
  16 C16            0.3574    -2.5867     0.0884 C.ar    
  17 Cl17           3.0692    -2.2915     0.1063 Cl      
  18 C18            2.3037     3.0875    -2.3793 C.2     
  19 H19            2.9177     0.7384     0.0582 H       
  20 O20            1.1606     2.7282    -2.5344 O.2     
  21 O21            3.1378     3.1441    -3.4294 O.3     
  22 H22            2.7785     2.8877    -4.2898 H       
  23 C23            3.2829     2.9115     2.0075 C.3     
  24 C24            3.5380     4.3343     1.5059 C.3     
  25 H25           -1.6792     2.6167    -0.9996 H       
  26 H26           -2.0102     2.2887     0.7223 H       
  27 H27           -1.3644     4.7159     0.1549 H       
  28 H28           -0.4039     3.9396     1.4368 H       
  29 H29           -1.7535    -2.8697     0.0755 H       
  30 H30            1.3712     4.0992     2.0712 H       
  31 H31            3.1313     4.5083    -1.0189 H       
  32 H32            3.6206     2.8231    -0.7210 H       
  33 H33            0.5486    -3.6495     0.1066 H       
  34 H34            3.2668     2.7533     3.0858 H       
  35 H35            3.6884     2.0896     1.4175 H       
  36 H36            4.1115     4.4484     0.5860 H       
  37 H37            3.6899     5.1121     2.2543 H       
@<TRIPOS>BOND
   1    1    2 1
   2    1    3 2
   3    1    4 1
   4    2    5 ar
   5    2    6 ar
   6    3    7 1
   7    3    8 1
   8    4    9 1
   9    4   25 1
  10    4   26 1
  11    5   10 ar
  12    5    8 1
  13    6   11 ar
  14    6   12 1
  15    7   14 1
  16    7   15 1
  17    7   13 1
  18    8   19 1
  19    9   13 1
  20    9   27 1
  21    9   28 1
  22   10   16 ar
  23   10   17 1
  24   11   16 ar
  25   11   29 1
  26   14   23 1
  27   14   24 1
  28   14   30 1
  29   15   18 1
  30   15   31 1
  31   15   32 1
  32   16   33 1
  33   18   20 2
  34   18   21 1
  35   21   22 1
  36   23   24 1
  37   23   34 1
  38   23   35 1
  39   24   36 1
  40   24   37 1

#	End of record

