#	Name: ASD04880716
#	Creating user name:	WinNT
#	Creation time:	15. 06. 2019 20:53

#	Modifying user name:	WinNT
#	Modification time:	15. 06. 2019 20:53

#	Program:	/corina/corina34_cracker 3.40 0067  02.08.2006

@<TRIPOS>MOLECULE
ASD04880716
  82   86    0    0    0
SMALL
NO_CHARGES


@<TRIPOS>ATOM
   1 C1            -1.0390     1.4769     3.1181 C.ar    
   2 C2            -1.0829     0.0964     3.1345 C.ar    
   3 C3            -0.3778    -0.6304     2.1930 C.ar    
   4 C4             0.3735     0.0216     1.2321 C.ar    
   5 C5             0.4214     1.4014     1.2098 C.ar    
   6 C6            -0.2858     2.1348     2.1543 C.ar    
   7 N7            -0.2396     3.5306     2.1346 N.3     
   8 C8            -0.8426     4.0602     0.9036 C.3     
   9 C9            -0.8442     5.5898     0.9566 C.3     
  10 N10            0.5346     6.0734     1.1145 N.3     
  11 C11            1.1376     5.5437     2.3456 C.3     
  12 C12            1.1392     4.0142     2.2925 C.3     
  13 C13            0.5807     7.4649     1.0949 C.ar    
  14 C14            0.9375     8.1609     2.2404 C.ar    
  15 C15            0.9846     9.5462     2.2251 C.ar    
  16 C16            0.6702    10.2438     1.0468 C.ar    
  17 C17            0.3109     9.5354    -0.1058 C.ar    
  18 C18            0.2724     8.1563    -0.0821 C.ar    
  19 C19           -1.8124     2.2684     4.1411 C.3     
  20 N20           -0.0821     7.4460    -1.2387 N.am    
  21 C21           -0.8806     8.0172    -2.1621 C.2     
  22 C22           -1.3264     7.2436    -3.3252 C.2     
  23 C23           -2.1323     7.6976    -4.3298 C.2     
  24 C24           -2.2994     6.6306    -5.2264 C.2     
  25 C25           -1.5972     5.5854    -4.7361 C.2     
  26 O26           -1.0076     5.9605    -3.5934 O.3     
  27 O27           -1.2316     9.1753    -2.0305 O.2     
  28 C28            0.7179    11.7140     1.0245 C.2     
  29 N29            1.3419    10.2440     3.3738 N.3     
  30 C30            0.4118     9.9579     4.4743 C.3     
  31 C31            2.7262     9.9436     3.7630 C.3     
  32 O32            1.0301    12.3277     2.0274 O.2     
  33 N33            0.4159    12.3810    -0.1070 N.am    
  34 C34            0.4635    13.8451    -0.1292 C.3     
  35 C35            0.0797    14.3468    -1.5228 C.3     
  36 C36            0.1294    15.8758    -1.5459 C.3     
  37 N37           -0.2381    16.3561    -2.8803 N.am    
  38 C38           -1.6092    16.6706    -3.2987 C.3     
  39 C39           -1.5715    16.7045    -4.8426 C.3     
  40 C40           -0.0890    17.0500    -5.1142 C.3     
  41 C41            0.6379    16.5710    -3.8769 C.2     
  42 O42            1.8364    16.4029    -3.7966 O.2     
  43 H43           -1.6683    -0.4158     3.8836 H       
  44 H44           -0.4136    -1.7097     2.2082 H       
  45 H45            0.9236    -0.5492     0.4986 H       
  46 H46            1.0086     1.9098     0.4594 H       
  47 H47           -0.2635     3.7268     0.0424 H       
  48 H48           -1.8670     3.6984     0.8156 H       
  49 H49           -1.2646     5.9853     0.0319 H       
  50 H50           -1.4457     5.9238     1.8020 H       
  51 H51            2.1620     5.9056     2.4336 H       
  52 H52            0.5585     5.8772     3.2068 H       
  53 H53            1.5596     3.6187     3.2172 H       
  54 H54            1.7407     3.6802     1.4471 H       
  55 H55            1.1785     7.6229     3.1453 H       
  56 H56            0.0683    10.0675    -1.0138 H       
  57 H57           -1.2184     2.3661     5.0498 H       
  58 H58           -2.0332     3.2588     3.7431 H       
  59 H59           -2.7449     1.7527     4.3703 H       
  60 H60            0.2474     6.5438    -1.3738 H       
  61 H61           -2.5589     8.6859    -4.4173 H       
  62 H62           -2.8803     6.6426    -6.1368 H       
  63 H63           -1.5203     4.6097    -5.1928 H       
  64 H64            0.4787     8.9033     4.7417 H       
  65 H65            0.6723    10.5691     5.3384 H       
  66 H66           -0.6058    10.1890     4.1593 H       
  67 H67            3.3938    10.1644     2.9301 H       
  68 H68            3.0028    10.5547     4.6222 H       
  69 H69            2.8092     8.8890     4.0255 H       
  70 H70            0.1670    11.8917    -0.9067 H       
  71 H71           -0.2367    14.2425     0.6056 H       
  72 H72            1.4724    14.1795     0.1122 H       
  73 H73            0.7798    13.9493    -2.2576 H       
  74 H74           -0.9292    14.0123    -1.7642 H       
  75 H75           -0.5708    16.2732    -0.8111 H       
  76 H76            1.1383    16.2102    -1.3045 H       
  77 H77           -2.2953    15.8964    -2.9551 H       
  78 H78           -1.9095    17.6425    -2.9072 H       
  79 H79           -1.8281    15.7311    -5.2606 H       
  80 H80           -2.2305    17.4805    -5.2320 H       
  81 H81            0.2697    16.5233    -5.9986 H       
  82 H82            0.0364    18.1262    -5.2330 H       
@<TRIPOS>BOND
   1    1    2 ar
   2    1    6 ar
   3    1   19 1
   4    2    3 ar
   5    2   43 1
   6    3    4 ar
   7    3   44 1
   8    4    5 ar
   9    4   45 1
  10    5    6 ar
  11    5   46 1
  12    6    7 1
  13    7    8 1
  14    7   12 1
  15    8    9 1
  16    8   47 1
  17    8   48 1
  18    9   10 1
  19    9   49 1
  20    9   50 1
  21   10   11 1
  22   10   13 1
  23   11   12 1
  24   11   51 1
  25   11   52 1
  26   12   53 1
  27   12   54 1
  28   13   14 ar
  29   13   18 ar
  30   14   15 ar
  31   14   55 1
  32   15   16 ar
  33   15   29 1
  34   16   17 ar
  35   16   28 1
  36   17   18 ar
  37   17   56 1
  38   18   20 1
  39   19   57 1
  40   19   58 1
  41   19   59 1
  42   20   21 am
  43   20   60 1
  44   21   22 1
  45   21   27 2
  46   22   23 2
  47   22   26 1
  48   23   24 1
  49   23   61 1
  50   24   25 2
  51   24   62 1
  52   25   26 1
  53   25   63 1
  54   28   32 2
  55   28   33 am
  56   29   30 1
  57   29   31 1
  58   30   64 1
  59   30   65 1
  60   30   66 1
  61   31   67 1
  62   31   68 1
  63   31   69 1
  64   33   34 1
  65   33   70 1
  66   34   35 1
  67   34   71 1
  68   34   72 1
  69   35   36 1
  70   35   73 1
  71   35   74 1
  72   36   37 1
  73   36   75 1
  74   36   76 1
  75   37   38 1
  76   37   41 am
  77   38   39 1
  78   38   77 1
  79   38   78 1
  80   39   40 1
  81   39   79 1
  82   39   80 1
  83   40   41 1
  84   40   81 1
  85   40   82 1
  86   41   42 2

#	End of record

