#	Name: ASD01916087
#	Creating user name:	WinNT
#	Creation time:	15. 06. 2019 20:06

#	Modifying user name:	WinNT
#	Modification time:	15. 06. 2019 20:06

#	Program:	/corina/corina34_cracker 3.40 0067  02.08.2006

@<TRIPOS>MOLECULE
ASD01916087
  47   50    0    0    0
SMALL
NO_CHARGES


@<TRIPOS>ATOM
   1 C1            -0.0169     1.3974     0.0097 C.ar    
   2 C2             0.0021    -0.0041     0.0020 C.ar    
   3 C3            -1.2070    -0.6758     0.0095 C.ar    
   4 C4            -2.3852     0.0496     0.0241 C.ar    
   5 C5            -3.7040    -0.6796     0.0323 C.3     
   6 C6             1.2059     2.1425     0.0021 C.1     
   7 C7             2.2084     2.7534    -0.0042 C.1     
   8 C8             3.4313     3.4985    -0.0119 C.ar    
   9 C9             3.4019     4.8954    -0.0041 C.ar    
  10 C10            4.5832     5.6078    -0.0116 C.ar    
  11 N11           -2.3736     1.3687     0.0316 N.ar    
  12 C12           -1.2496     2.0547     0.0192 C.ar    
  13 C13            4.6592     2.8319    -0.0214 C.ar    
  14 C14            5.7962     4.9433    -0.0273 C.ar    
  15 C15           -3.6107    -1.9779    -0.7637 C.2     
  16 N16           -4.2451    -2.9758    -0.0877 N.am    
  17 C17           -4.9126    -2.4096     1.0617 C.3     
  18 C18           -4.0407    -1.1804     1.4406 C.3     
  19 H19           -4.4991    -0.0432    -0.3563 H       
  20 H20           -3.1416    -1.4783     1.9800 H       
  21 H21           -5.8910    -2.0466     0.7468 H       
  22 C22           -4.2504    -4.3914    -0.4648 C.3     
  23 O23           -3.0567    -2.1023    -1.8354 O.2     
  24 C24           -5.1054    -3.2373     2.3090 C.3     
  25 C25           -5.9134    -2.3818     3.3011 C.3     
  26 C26           -5.2295    -1.0474     3.5812 C.3     
  27 C27           -4.9306    -0.2787     2.2807 C.3     
  28 C28            5.8345     3.5576    -0.0289 C.ar    
  29 F29            7.0233     2.9158    -0.0381 F       
  30 H30            0.9365    -0.5454    -0.0098 H       
  31 H31           -1.2312    -1.7555     0.0035 H       
  32 H32            2.4560     5.4165     0.0074 H       
  33 H33            4.5608     6.6876    -0.0056 H       
  34 H34           -1.2809     3.1342     0.0258 H       
  35 H35            4.6893     1.7523    -0.0227 H       
  36 H36            6.7176     5.5065    -0.0338 H       
  37 H37           -3.6655    -4.5273    -1.3745 H       
  38 H38           -3.8138    -4.9834     0.3396 H       
  39 H39           -5.2758    -4.7169    -0.6401 H       
  40 H40           -5.6556    -4.1472     2.0694 H       
  41 H41           -4.1368    -3.4904     2.7400 H       
  42 H42           -6.9030    -2.1937     2.8846 H       
  43 H43           -6.0212    -2.9296     4.2372 H       
  44 H44           -5.8789    -0.4404     4.2120 H       
  45 H45           -4.2936    -1.2311     4.1090 H       
  46 H46           -4.4109     0.6521     2.5080 H       
  47 H47           -5.8587    -0.0694     1.7488 H       
@<TRIPOS>BOND
   1    1    2 ar
   2    1    6 1
   3    1   12 ar
   4    2    3 ar
   5    2   30 1
   6    3    4 ar
   7    3   31 1
   8    4   11 ar
   9    4    5 1
  10    5   15 1
  11    5   18 1
  12    5   19 1
  13    6    7 3
  14    7    8 1
  15    8    9 ar
  16    8   13 ar
  17    9   10 ar
  18    9   32 1
  19   10   14 ar
  20   10   33 1
  21   11   12 ar
  22   12   34 1
  23   13   28 ar
  24   13   35 1
  25   14   28 ar
  26   14   36 1
  27   15   16 am
  28   15   23 2
  29   16   17 1
  30   16   22 1
  31   17   18 1
  32   17   21 1
  33   17   24 1
  34   18   20 1
  35   18   27 1
  36   22   37 1
  37   22   38 1
  38   22   39 1
  39   24   25 1
  40   24   40 1
  41   24   41 1
  42   25   26 1
  43   25   42 1
  44   25   43 1
  45   26   27 1
  46   26   44 1
  47   26   45 1
  48   27   46 1
  49   27   47 1
  50   28   29 1

#	End of record

