#	Name: ASD01730076
#	Creating user name:	WinNT
#	Creation time:	15. 06. 2019 19:23

#	Modifying user name:	WinNT
#	Modification time:	15. 06. 2019 19:23

#	Program:	/corina/corina34_cracker 3.40 0067  02.08.2006

@<TRIPOS>MOLECULE
ASD01730076
  22   22    0    0    0
SMALL
NO_CHARGES


@<TRIPOS>ATOM
   1 S1            -0.0218     1.7537     0.0117 S.3     
   2 C2             0.0021    -0.0041     0.0020 C.2     
   3 N3             1.2155    -0.4364    -0.0119 N.2     
   4 C4             2.2102     0.4758    -0.0165 C.ar    
   5 C5             1.7398     1.7920    -0.0049 C.ar    
   6 C6             3.6039     0.2600    -0.0305 C.ar    
   7 C7             4.4733     1.3216    -0.0323 C.ar    
   8 C8             3.9944     2.6274    -0.0202 C.ar    
   9 C9             2.6325     2.8606    -0.0073 C.ar    
  10 O10            4.8646     3.6724    -0.0210 O.3     
  11 C11            6.2581     3.3561    -0.0345 C.3     
  12 F12            6.5574     2.6169    -1.1839 F       
  13 F13            7.0048     4.5392    -0.0335 F       
  14 F14            6.5764     2.6027     1.1005 F       
  15 N15           -1.1208    -0.8076     0.0088 N.pl3   
  16 H16            3.9899    -0.7487    -0.0396 H       
  17 H17            5.5382     1.1418    -0.0427 H       
  18 H18            2.2596     3.8741     0.0013 H       
  19 H19           -2.0040    -0.4066     0.0198 H       
  20 H20           -1.0265    -1.7729     0.0027 H       
  21 Cl21          12.0048     9.5392     6.1005 Cl      
  22 H22           12.0048    10.9092     6.1005 H       
@<TRIPOS>BOND
   1    1    2 1
   2    1    5 1
   3    2    3 2
   4    2   15 1
   5    3    4 1
   6    4    5 ar
   7    4    6 ar
   8    5    9 ar
   9    6    7 ar
  10    6   16 1
  11    7    8 ar
  12    7   17 1
  13    8    9 ar
  14    8   10 1
  15    9   18 1
  16   10   11 1
  17   11   12 1
  18   11   13 1
  19   11   14 1
  20   15   19 1
  21   15   20 1
  22   21   22 1

#	End of record

