#	Name: ASD00122007
#	Creating user name:	WinNT
#	Creation time:	15. 06. 2019 18:31

#	Modifying user name:	WinNT
#	Modification time:	15. 06. 2019 18:31

#	Program:	/corina/corina34_cracker 3.40 0067  02.08.2006

@<TRIPOS>MOLECULE
ASD00122007
  38   38    0    0    0
SMALL
NO_CHARGES


@<TRIPOS>ATOM
   1 C1            -0.0166     1.3763     0.0096 C.ar    
   2 C2             0.0021    -0.0041     0.0020 C.ar    
   3 C3             1.2066    -0.6886    -0.0127 C.ar    
   4 C4             2.3987     0.0021    -0.0203 C.ar    
   5 C5             2.3944     1.3992    -0.0132 C.ar    
   6 C6             1.1740     2.0879     0.0021 C.ar    
   7 C7             3.6672     2.1452    -0.0209 C.2     
   8 N8             4.8387     1.4789    -0.0347 N.am    
   9 O9             3.6593     3.3610    -0.0147 O.2     
  10 C10            6.1026     2.2196    -0.0423 C.3     
  11 C11            6.4919     2.5787     1.3931 C.3     
  12 C12            7.1981     1.3527    -0.6661 C.3     
  13 C13            6.8698     1.0973    -2.1385 C.3     
  14 C14            5.4592     3.5463     1.9748 C.3     
  15 O15            1.1571     3.4443     0.0086 O.3     
  16 C16           -0.1240     4.0771     0.0243 C.3     
  17 C17            0.0576     5.5963     0.0296 C.3     
  18 H18           -0.9596     1.9029     0.0169 H       
  19 H19           -0.9277    -0.5536     0.0079 H       
  20 H20            1.2110    -1.7686    -0.0178 H       
  21 H21            3.3352    -0.5356    -0.0314 H       
  22 H22            4.8450     0.5090    -0.0397 H       
  23 H23            5.9852     3.1326    -0.6261 H       
  24 H24            6.5226     1.6729     1.9986 H       
  25 H25            7.4742     3.0511     1.3958 H       
  26 H26            8.1558     1.8679    -0.5915 H       
  27 H27            7.2548     0.4018    -0.1363 H       
  28 H28            7.6502     0.4796    -2.5829 H       
  29 H29            5.9121     0.5821    -2.2132 H       
  30 H30            6.8131     2.0481    -2.6684 H       
  31 H31            5.4285     4.4521     1.3692 H       
  32 H32            4.4769     3.0739     1.9721 H       
  33 H33            5.7365     3.8021     2.9974 H       
  34 H34           -0.6861     3.7815    -0.8616 H       
  35 H35           -0.6685     3.7731     0.9182 H       
  36 H36            0.6021     5.9003    -0.8644 H       
  37 H37           -0.9197     6.0790     0.0415 H       
  38 H38            0.6196     5.8919     0.9155 H       
@<TRIPOS>BOND
   1    1    2 ar
   2    1    6 ar
   3    1   18 1
   4    2    3 ar
   5    2   19 1
   6    3    4 ar
   7    3   20 1
   8    4    5 ar
   9    4   21 1
  10    5    6 ar
  11    5    7 1
  12    6   15 1
  13    7    8 am
  14    7    9 2
  15    8   10 1
  16    8   22 1
  17   10   11 1
  18   10   12 1
  19   10   23 1
  20   11   14 1
  21   11   24 1
  22   11   25 1
  23   12   13 1
  24   12   26 1
  25   12   27 1
  26   13   28 1
  27   13   29 1
  28   13   30 1
  29   14   31 1
  30   14   32 1
  31   14   33 1
  32   15   16 1
  33   16   17 1
  34   16   34 1
  35   16   35 1
  36   17   36 1
  37   17   37 1
  38   17   38 1

#	End of record

