#	Name: ASD01913650
#	Creating user name:	WinNT
#	Creation time:	15. 06. 2019 20:02

#	Modifying user name:	WinNT
#	Modification time:	15. 06. 2019 20:02

#	Program:	/corina/corina34_cracker 3.40 0067  02.08.2006

@<TRIPOS>MOLECULE
ASD01913650
  50   51    0    0    0
SMALL
NO_CHARGES


@<TRIPOS>ATOM
   1 C1            -0.4828     2.8132    -0.3968 C.ar    
   2 C2            -0.6905     1.4953    -0.0350 C.ar    
   3 C3             0.3830     0.6963     0.3116 C.ar    
   4 C4             1.6642     1.2151     0.2960 C.ar    
   5 C5             1.8720     2.5328    -0.0667 C.ar    
   6 C6             0.7984     3.3321    -0.4120 C.ar    
   7 C7             3.2687     3.0985    -0.0833 C.3     
   8 O8             3.8471     2.9015    -1.3751 O.3     
   9 C9             5.1101     3.3563    -1.5594 C.ar    
  10 N10            5.7422     3.9505    -0.5591 N.ar    
  11 C11            6.9696     4.4090    -0.6886 C.ar    
  12 C12            7.6516     4.2823    -1.8992 C.ar    
  13 C13            7.0102     3.6575    -2.9791 C.ar    
  14 C14            5.7264     3.1870    -2.7956 C.ar    
  15 C15            9.0273     4.7982    -2.0416 C.2     
  16 N16            9.6316     4.7826    -3.2462 N.am    
  17 O17            9.6153     5.2373    -1.0722 O.2     
  18 C18           10.9969     5.2947    -3.3875 C.3     
  19 C19           11.4428     5.1625    -4.8451 C.3     
  20 C20            7.6439     5.0776     0.4815 C.3     
  21 C21           12.8687     5.6973    -4.9926 C.3     
  22 C22           13.8109     4.8917    -4.0960 C.3     
  23 C23           13.3146     5.5652    -6.4502 C.3     
  24 C24           12.9064     7.1700    -4.5793 C.3     
  25 H25           -1.3210     3.4361    -0.6720 H       
  26 H26           -1.6915     1.0900    -0.0228 H       
  27 H27            0.2207    -0.3331     0.5950 H       
  28 H28            2.5028     0.5911     0.5675 H       
  29 H29            0.9607     4.3615    -0.6957 H       
  30 H30            3.2314     4.1648     0.1394 H       
  31 H31            3.8750     2.5915     0.6674 H       
  32 H32            7.5107     3.5437    -3.9293 H       
  33 H33            5.2024     2.7004    -3.6049 H       
  34 H34            9.1625     4.4323    -4.0196 H       
  35 H35           11.0237     6.3438    -3.0930 H       
  36 H36           11.6681     4.7207    -2.7487 H       
  37 H37           11.4160     4.1134    -5.1395 H       
  38 H38           10.7716     5.7365    -5.4839 H       
  39 H39            8.2748     4.3547     0.9989 H       
  40 H40            8.2573     5.9045     0.1236 H       
  41 H41            6.8876     5.4571     1.1685 H       
  42 H42           13.7841     3.8425    -4.3904 H       
  43 H43           14.8267     5.2727    -4.2011 H       
  44 H44           13.4932     4.9858    -3.0576 H       
  45 H45           12.6434     6.1391    -7.0890 H       
  46 H46           14.3305     5.9462    -6.5554 H       
  47 H47           13.2878     4.5160    -6.7447 H       
  48 H48           12.5887     7.2641    -3.5409 H       
  49 H49           13.9222     7.5510    -4.6845 H       
  50 H50           12.2351     7.7439    -5.2181 H       
@<TRIPOS>BOND
   1    1    2 ar
   2    1    6 ar
   3    1   25 1
   4    2    3 ar
   5    2   26 1
   6    3    4 ar
   7    3   27 1
   8    4    5 ar
   9    4   28 1
  10    5    6 ar
  11    5    7 1
  12    6   29 1
  13    7    8 1
  14    7   30 1
  15    7   31 1
  16    8    9 1
  17    9   10 ar
  18    9   14 ar
  19   10   11 ar
  20   11   12 ar
  21   11   20 1
  22   12   13 ar
  23   12   15 1
  24   13   14 ar
  25   13   32 1
  26   14   33 1
  27   15   16 am
  28   15   17 2
  29   16   18 1
  30   16   34 1
  31   18   19 1
  32   18   35 1
  33   18   36 1
  34   19   21 1
  35   19   37 1
  36   19   38 1
  37   20   39 1
  38   20   40 1
  39   20   41 1
  40   21   22 1
  41   21   23 1
  42   21   24 1
  43   22   42 1
  44   22   43 1
  45   22   44 1
  46   23   45 1
  47   23   46 1
  48   23   47 1
  49   24   48 1
  50   24   49 1
  51   24   50 1

#	End of record

