#	Name: ASD01890507
#	Creating user name:	WinNT
#	Creation time:	15. 06. 2019 19:51

#	Modifying user name:	WinNT
#	Modification time:	15. 06. 2019 19:51

#	Program:	/corina/corina34_cracker 3.40 0067  02.08.2006

@<TRIPOS>MOLECULE
ASD01890507
  42   44    0    0    0
SMALL
NO_CHARGES


@<TRIPOS>ATOM
   1 N1             0.1200     1.2631    -0.1100 N.am    
   2 C2             0.0492    -0.0822    -0.1492 C.2     
   3 C3            -1.2628    -0.7757     0.1129 C.3     
   4 C4            -2.0236    -0.9167    -1.1802 C.ar    
   5 C5            -3.2707    -0.3355    -1.3151 C.ar    
   6 O6             1.0414    -0.7347    -0.3955 O.2     
   7 C7            -0.9979    -2.1624     0.7026 C.3     
   8 C8            -3.9689    -0.4645    -2.5009 C.ar    
   9 C9            -3.4196    -1.1755    -3.5530 C.ar    
  10 C10           -2.1716    -1.7569    -3.4174 C.ar    
  11 C11           -1.4718    -1.6225    -2.2331 C.ar    
  12 Cl12          -4.2963    -1.3384    -5.0425 Cl      
  13 C13            1.4067     1.9667    -0.2419 C.3     
  14 C14            1.3617     2.7901    -1.5281 C.3     
  15 C15            0.0771     3.5707    -1.6205 C.ar    
  16 C16           -1.0483     3.2457    -0.8973 C.ar    
  17 C17           -1.0824     2.0860     0.0598 C.3     
  18 C18            0.0470     4.6623    -2.4802 C.ar    
  19 C19           -1.0999     5.4155    -2.6180 C.ar    
  20 C20           -2.2316     5.0834    -1.8965 C.ar    
  21 C21           -2.2038     4.0021    -1.0402 C.ar    
  22 C22           -0.3684    -2.0174     2.0642 C.2     
  23 O23           -0.2535    -0.9230     2.5632 O.2     
  24 O24            0.0646    -3.1041     2.7225 O.3     
  25 H25           -1.8503    -0.1873     0.8178 H       
  26 H26           -3.6995     0.2192    -0.4937 H       
  27 H27           -1.9391    -2.7046     0.7933 H       
  28 H28           -0.3231    -2.7130     0.0472 H       
  29 H29           -4.9433    -0.0106    -2.6061 H       
  30 H30           -1.7423    -2.3120    -4.2384 H       
  31 H31           -0.4976    -2.0763    -2.1271 H       
  32 H32            1.5558     2.6261     0.6131 H       
  33 H33            2.2193     1.2422    -0.2959 H       
  34 H34            2.2035     3.4824    -1.5402 H       
  35 H35            1.4368     2.1207    -2.3851 H       
  36 H36           -1.9693     1.4824    -0.1332 H       
  37 H37           -1.1150     2.4608     1.0828 H       
  38 H38            0.9297     4.9231    -3.0451 H       
  39 H39           -1.1140     6.2629    -3.2875 H       
  40 H40           -3.1334     5.6681    -2.0025 H       
  41 H41           -3.0878     3.7417    -0.4770 H       
  42 H42            0.4613    -2.9610     3.5927 H       
@<TRIPOS>BOND
   1    1    2 am
   2    1   13 1
   3    1   17 1
   4    2    3 1
   5    2    6 2
   6    3    4 1
   7    3    7 1
   8    3   25 1
   9    4    5 ar
  10    4   11 ar
  11    5    8 ar
  12    5   26 1
  13    7   22 1
  14    7   27 1
  15    7   28 1
  16    8    9 ar
  17    8   29 1
  18    9   10 ar
  19    9   12 1
  20   10   11 ar
  21   10   30 1
  22   11   31 1
  23   13   14 1
  24   13   32 1
  25   13   33 1
  26   14   15 1
  27   14   34 1
  28   14   35 1
  29   15   16 ar
  30   15   18 ar
  31   16   17 1
  32   16   21 ar
  33   17   36 1
  34   17   37 1
  35   18   19 ar
  36   18   38 1
  37   19   20 ar
  38   19   39 1
  39   20   21 ar
  40   20   40 1
  41   21   41 1
  42   22   23 2
  43   22   24 1
  44   24   42 1

#	End of record

