#	Name: ASD06770011
#	Creating user name:	WinNT
#	Creation time:	15. 06. 2019 21:08

#	Modifying user name:	WinNT
#	Modification time:	15. 06. 2019 21:08

#	Program:	/corina/corina34_cracker 3.40 0067  02.08.2006

@<TRIPOS>MOLECULE
ASD06770011
  34   35    0    0    0
SMALL
NO_CHARGES


@<TRIPOS>ATOM
   1 C1            -0.0187     1.5258     0.0104 C.3     
   2 C2             0.0021    -0.0041     0.0020 C.3     
   3 C3             0.7421    -0.5109     1.2415 C.3     
   4 C4             2.1775     0.0187     1.2307 C.3     
   5 C5             2.1567     1.5485     1.2391 C.3     
   6 C6             1.4167     2.0553    -0.0004 C.3     
   7 C7            -0.7475     2.0250    -1.2105 C.2     
   8 O8            -1.2036     1.2379    -2.0057 O.2     
   9 O9            -0.8901     3.3440    -1.4144 O.3     
  10 O10            2.8686    -0.4547     2.3884 O.3     
  11 C11            4.2075    -0.6412     2.2731 C.ar    
  12 C12            4.9347    -1.1000     3.3642 C.ar    
  13 C13            6.2996    -1.2865     3.2333 C.ar    
  14 C14            6.8918    -1.0061     2.0094 C.ar    
  15 C15            6.1075    -0.5532     0.9676 C.ar    
  16 N16            4.8070    -0.3898     1.1214 N.ar    
  17 C17           -1.6033     3.7526    -2.6114 C.3     
  18 H18           -0.5289     1.8773     0.9072 H       
  19 H19           -1.0205    -0.3814     0.0098 H       
  20 H20            0.5123    -0.3556    -0.8948 H       
  21 H21            0.2319    -0.1594     2.1383 H       
  22 H22            0.7568    -1.6008     1.2356 H       
  23 H23            2.6876    -0.3328     0.3339 H       
  24 H24            1.6465     1.9000     2.1359 H       
  25 H25            3.1793     1.9258     1.2314 H       
  26 H26            1.9269     1.7038    -0.8972 H       
  27 H27            1.4019     3.1452     0.0056 H       
  28 H28            4.4415    -1.3079     4.3022 H       
  29 H29            6.8907    -1.6418     4.0644 H       
  30 H30            7.9548    -1.1406     1.8738 H       
  31 H31            6.5632    -0.3336     0.0134 H       
  32 H32           -1.6470     4.8409    -2.6545 H       
  33 H33           -1.0827     3.3748    -3.4913 H       
  34 H34           -2.6155     3.3490    -2.5868 H       
@<TRIPOS>BOND
   1    1    2 1
   2    1    6 1
   3    1    7 1
   4    1   18 1
   5    2    3 1
   6    2   19 1
   7    2   20 1
   8    3    4 1
   9    3   21 1
  10    3   22 1
  11    4    5 1
  12    4   10 1
  13    4   23 1
  14    5    6 1
  15    5   24 1
  16    5   25 1
  17    6   26 1
  18    6   27 1
  19    7    8 2
  20    7    9 1
  21    9   17 1
  22   10   11 1
  23   11   12 ar
  24   11   16 ar
  25   12   13 ar
  26   12   28 1
  27   13   14 ar
  28   13   29 1
  29   14   15 ar
  30   14   30 1
  31   15   16 ar
  32   15   31 1
  33   17   32 1
  34   17   33 1
  35   17   34 1

#	End of record

