#	Name: ASD09740653
#	Creating user name:	WinNT
#	Creation time:	15. 06. 2019 21:23

#	Modifying user name:	WinNT
#	Modification time:	15. 06. 2019 21:23

#	Program:	/corina/corina34_cracker 3.40 0067  02.08.2006

@<TRIPOS>MOLECULE
ASD09740653
  41   42    0    0    0
SMALL
NO_CHARGES


@<TRIPOS>ATOM
   1 Si1           -0.2565     1.6189     0.0189 Si      
   2 C2            -0.8612    -0.1381     0.1536 C.3     
   3 C3             1.6051     1.6314    -0.0506 C.3     
   4 C4            -0.9410     2.3941    -1.5307 C.3     
   5 C5            -2.4699     2.3839    -1.4736 C.3     
   6 C6            -0.4445     3.8371    -1.6413 C.3     
   7 C7            -0.4709     1.5981    -2.7498 C.3     
   8 O8            -0.7577     2.4675     1.3185 O.3     
   9 C9            -0.2181     2.0048     2.5581 C.3     
  10 C10            0.9970     2.8642     2.9672 C.3     
  11 C11            0.3519     3.9470     3.8580 C.3     
  12 C12           -0.8992     3.3053     4.4184 C.ar    
  13 C13           -1.6895     3.6695     5.4970 C.ar    
  14 C14           -2.8026     2.9203     5.8275 C.ar    
  15 C15           -3.1295     1.8044     5.0799 C.ar    
  16 C16           -2.3432     1.4404     4.0045 C.ar    
  17 C17           -1.2267     2.1895     3.6716 C.ar    
  18 Br18          -1.2428     5.1959     6.5200 Br      
  19 H19           -0.3877    -0.6207     1.0086 H       
  20 H20           -1.9429    -0.1408     0.2878 H       
  21 H21           -0.6067    -0.6807    -0.7569 H       
  22 H22            1.9401     1.0642    -0.9191 H       
  23 H23            1.9589     2.6593    -0.1294 H       
  24 H24            2.0056     1.1778     0.8560 H       
  25 H25           -2.8049     2.9510    -0.6051 H       
  26 H26           -2.8704     2.8375    -2.3802 H       
  27 H27           -2.8237     1.3559    -1.3948 H       
  28 H28            0.6448     3.8444    -1.6820 H       
  29 H29           -0.8450     4.2907    -2.5479 H       
  30 H30           -0.7794     4.4042    -0.7728 H       
  31 H31           -0.8247     0.5701    -2.6710 H       
  32 H32           -0.8714     2.0517    -3.6564 H       
  33 H33            0.6183     1.6054    -2.7905 H       
  34 H34            0.0697     0.9565     2.4785 H       
  35 H35            1.7160     2.2733     3.5347 H       
  36 H36            1.4671     3.3121     2.0918 H       
  37 H37            1.0289     4.2248     4.6659 H       
  38 H38            0.0936     4.8225     3.2622 H       
  39 H39           -3.4163     3.2060     6.6690 H       
  40 H40           -3.9989     1.2174     5.3369 H       
  41 H41           -2.5993     0.5681     3.4214 H       
@<TRIPOS>BOND
   1    1    2 1
   2    1    3 1
   3    1    4 1
   4    1    8 1
   5    2   19 1
   6    2   20 1
   7    2   21 1
   8    3   22 1
   9    3   23 1
  10    3   24 1
  11    4    5 1
  12    4    7 1
  13    4    6 1
  14    5   25 1
  15    5   26 1
  16    5   27 1
  17    6   28 1
  18    6   29 1
  19    6   30 1
  20    7   31 1
  21    7   32 1
  22    7   33 1
  23    8    9 1
  24    9   10 1
  25    9   17 1
  26    9   34 1
  27   10   11 1
  28   10   35 1
  29   10   36 1
  30   11   12 1
  31   11   37 1
  32   11   38 1
  33   12   13 ar
  34   12   17 ar
  35   13   14 ar
  36   13   18 1
  37   14   15 ar
  38   14   39 1
  39   15   16 ar
  40   15   40 1
  41   16   17 ar
  42   16   41 1

#	End of record

