#	Name: ASD01200049
#	Creating user name:	WinNT
#	Creation time:	15. 06. 2019 19:08

#	Modifying user name:	WinNT
#	Modification time:	15. 06. 2019 19:08

#	Program:	/corina/corina34_cracker 3.40 0067  02.08.2006

@<TRIPOS>MOLECULE
ASD01200049
  35   37    0    0    0
SMALL
NO_CHARGES


@<TRIPOS>ATOM
   1 C1             0.0019     1.3900    -0.1570 C.ar    
   2 C2            -0.3080     0.0891     0.2280 C.ar    
   3 C3            -1.6133    -0.3557     0.1944 C.ar    
   4 C4            -2.6292     0.4937    -0.2244 C.ar    
   5 C5            -2.3241     1.8072    -0.6138 C.ar    
   6 C6            -1.0000     2.2506    -0.5719 C.ar    
   7 C7            -3.3958     2.7155    -1.0600 C.2     
   8 N8            -3.1232     4.0138    -1.2980 N.am    
   9 C9            -4.1331     4.8697    -1.7186 C.2     
  10 N10           -3.9788     6.1312    -1.9743 N.2     
  11 C11           -5.0496     6.7971    -2.3647 C.2     
  12 C12           -6.1614     6.0633    -2.4425 C.2     
  13 S13           -5.7591     4.4113    -1.9814 S.3     
  14 O14           -4.5259     2.2934    -1.2135 O.2     
  15 C15           -5.0191     8.2671    -2.6949 C.3     
  16 S16            1.6733     1.9457    -0.1094 S.3     
  17 N17           -3.9453     0.0438    -0.2584 N.pl3   
  18 C18            2.2208     1.4049    -1.6945 C.2     
  19 N19            1.5009     0.7450    -2.5716 N.2     
  20 C20            2.2445     0.5021    -3.6637 C.2     
  21 C21            3.4673     1.0244    -3.4677 C.2     
  22 N22            3.4604     1.6056    -2.2200 N.pl3   
  23 H23            0.4778    -0.5760     0.5546 H       
  24 H24           -1.8458    -1.3669     0.4941 H       
  25 H25           -0.7575     3.2601    -0.8696 H       
  26 H26           -2.2218     4.3505    -1.1756 H       
  27 H27           -7.1367     6.4192    -2.7401 H       
  28 H28           -4.7948     8.3971    -3.7537 H       
  29 H29           -5.9899     8.7097    -2.4722 H       
  30 H30           -4.2504     8.7578    -2.0978 H       
  31 H31           -4.1316    -0.9049    -0.3364 H       
  32 H32           -4.6765     0.6789    -0.2040 H       
  33 H33            1.9159    -0.0235    -4.5481 H       
  34 H34            4.2963     0.9970    -4.1593 H       
  35 H35            4.2003     2.0656    -1.7937 H       
@<TRIPOS>BOND
   1    1    2 ar
   2    1   16 1
   3    1    6 ar
   4    2    3 ar
   5    2   23 1
   6    3    4 ar
   7    3   24 1
   8    4    5 ar
   9    4   17 1
  10    5    6 ar
  11    5    7 1
  12    6   25 1
  13    7    8 am
  14    7   14 2
  15    8    9 1
  16    8   26 1
  17    9   10 2
  18    9   13 1
  19   10   11 1
  20   11   12 2
  21   11   15 1
  22   12   13 1
  23   12   27 1
  24   15   28 1
  25   15   29 1
  26   15   30 1
  27   16   18 1
  28   17   31 1
  29   17   32 1
  30   18   19 2
  31   18   22 1
  32   19   20 1
  33   20   21 2
  34   20   33 1
  35   21   22 1
  36   21   34 1
  37   22   35 1

#	End of record

