#	Name: ASD01814395
#	Creating user name:	WinNT
#	Creation time:	15. 06. 2019 19:32

#	Modifying user name:	WinNT
#	Modification time:	15. 06. 2019 19:32

#	Program:	/corina/corina34_cracker 3.40 0067  02.08.2006

@<TRIPOS>MOLECULE
ASD01814395
  56   61    0    0    0
SMALL
NO_CHARGES


@<TRIPOS>ATOM
   1 C1            -0.0167     1.3814     0.0096 C.ar    
   2 C2             0.0021    -0.0041     0.0020 C.ar    
   3 C3             1.1967    -0.6942    -0.0127 C.ar    
   4 C4             2.3998     0.0010    -0.0205 C.ar    
   5 C5             2.3783     1.4090    -0.0132 C.ar    
   6 C6             1.1687     2.0940     0.0021 C.ar    
   7 N7             3.6101    -0.6622    -0.0347 N.pl3   
   8 N8             4.7463    -0.0674    -0.0420 N.2     
   9 C9             4.8856     1.2330    -0.0367 C.2     
  10 C10            3.6811     2.0990    -0.0220 C.2     
  11 C11            6.0165     2.1638    -0.0428 C.2     
  12 N12            5.4830     3.4042    -0.0321 N.am    
  13 N13            4.0877     3.3331    -0.0199 N.2     
  14 C14            3.5961    -2.1271    -0.0414 C.3     
  15 C15            3.5782    -2.6228    -1.4645 C.ar    
  16 C16            4.7683    -2.8611    -2.1271 C.ar    
  17 C17            4.7551    -3.3150    -3.4315 C.ar    
  18 C18            3.5454    -3.5323    -4.0772 C.ar    
  19 C19            2.3522    -3.2926    -3.4091 C.ar    
  20 C20            2.3718    -2.8437    -2.1031 C.ar    
  21 N21            3.5288    -3.9925    -5.4013 N.pl3   
  22 C22            2.4262    -4.2438    -6.1427 C.2     
  23 C23            2.8368    -4.6694    -7.3599 C.2     
  24 C24            4.2360    -4.6789    -7.3636 C.2     
  25 N25            4.6515    -4.2678    -6.1926 N.2     
  26 O26            7.2019     1.8762    -0.0552 O.2     
  27 C27            6.2572     4.6479    -0.0335 C.3     
  28 C28            5.8999     5.4613    -1.2741 C.3     
  29 C29            6.8728     6.6323    -1.4300 C.3     
  30 S30            6.6850     7.7501    -0.0103 S.o2    
  31 C31            6.9230     6.6043     1.3793 C.3     
  32 C32            5.9448     5.4363     1.2350 C.3     
  33 F33            1.1511     3.4449     0.0096 F       
  34 O34            7.7579     8.6819    -0.0202 O.2     
  35 O35            5.3471     8.2280     0.0184 O.2     
  36 H36           -0.9603     1.9067     0.0170 H       
  37 H37           -0.9296    -0.5503     0.0080 H       
  38 H38            1.1968    -1.7742    -0.0178 H       
  39 H39            4.4873    -2.5013     0.4625 H       
  40 H40            2.7075    -2.4844     0.4789 H       
  41 H41            5.7090    -2.6918    -1.6243 H       
  42 H42            5.6849    -3.5002    -3.9488 H       
  43 H43            1.4097    -3.4604    -3.9090 H       
  44 H44            1.4439    -2.6570    -1.5828 H       
  45 H45            1.4019    -4.1265    -5.8210 H       
  46 H46            2.1974    -4.9518    -8.1832 H       
  47 H47            4.8648    -4.9708    -8.1917 H       
  48 H48            7.3205     4.4090    -0.0546 H       
  49 H49            5.9588     4.8222    -2.1551 H       
  50 H50            4.8845     5.8452    -1.1749 H       
  51 H51            7.8948     6.2551    -1.4646 H       
  52 H52            6.6500     7.1715    -2.3507 H       
  53 H53            7.9456     6.2269     1.3698 H       
  54 H54            6.7336     7.1249     2.3179 H       
  55 H55            4.9267     5.8218     1.1799 H       
  56 H56            6.0350     4.7798     2.1004 H       
@<TRIPOS>BOND
   1    1    2 ar
   2    1    6 ar
   3    1   36 1
   4    2    3 ar
   5    2   37 1
   6    3    4 ar
   7    3   38 1
   8    4    5 ar
   9    4    7 1
  10    5    6 ar
  11    5   10 1
  12    6   33 1
  13    7    8 1
  14    7   14 1
  15    8    9 2
  16    9   10 1
  17    9   11 1
  18   10   13 2
  19   11   12 am
  20   11   26 2
  21   12   13 1
  22   12   27 1
  23   14   15 1
  24   14   39 1
  25   14   40 1
  26   15   16 ar
  27   15   20 ar
  28   16   17 ar
  29   16   41 1
  30   17   18 ar
  31   17   42 1
  32   18   19 ar
  33   18   21 1
  34   19   20 ar
  35   19   43 1
  36   20   44 1
  37   21   22 1
  38   21   25 1
  39   22   23 2
  40   22   45 1
  41   23   24 1
  42   23   46 1
  43   24   25 2
  44   24   47 1
  45   27   28 1
  46   27   32 1
  47   27   48 1
  48   28   29 1
  49   28   49 1
  50   28   50 1
  51   29   30 1
  52   29   51 1
  53   29   52 1
  54   30   31 1
  55   30   34 2
  56   30   35 2
  57   31   32 1
  58   31   53 1
  59   31   54 1
  60   32   55 1
  61   32   56 1

#	End of record

