#	Name: ASD01913227
#	Creating user name:	WinNT
#	Creation time:	15. 06. 2019 20:01

#	Modifying user name:	WinNT
#	Modification time:	15. 06. 2019 20:01

#	Program:	/corina/corina34_cracker 3.40 0067  02.08.2006

@<TRIPOS>MOLECULE
ASD01913227
  40   43    0    0    0
SMALL
NO_CHARGES


@<TRIPOS>ATOM
   1 C1            -5.9292    -2.2195    -0.6628 C.ar    
   2 C2            -4.7206    -2.8762    -0.5435 C.ar    
   3 C3            -4.6736    -4.2520    -0.7085 C.ar    
   4 C4            -5.8532    -4.9242    -0.9898 C.ar    
   5 C5            -7.0271    -4.2028    -1.0951 C.ar    
   6 N6            -7.0333    -2.8954    -0.9316 N.ar    
   7 N7            -4.2714    -0.5460    -0.1867 N.am    
   8 C8            -5.7009    -0.7438    -0.4461 C.3     
   9 C9            -3.6423    -1.8699    -0.2376 C.3     
  10 C10           -3.6544     0.6273     0.0566 C.2     
  11 O11           -2.4758     0.6441     0.3535 O.2     
  12 C12           -4.4109     1.8936    -0.0375 C.ar    
  13 C13           -5.7911     1.8695    -0.2277 C.ar    
  14 C14           -6.4975     3.0685    -0.3150 C.ar    
  15 C15           -5.8158     4.2868    -0.2111 C.ar    
  16 C16           -4.4469     4.3012    -0.0230 C.ar    
  17 C17           -3.7441     3.1166     0.0698 C.ar    
  18 C18           -7.9160     3.0536    -0.5108 C.1     
  19 C19           -9.0789     3.0414    -0.6713 C.1     
  20 C20          -10.4974     3.0266    -0.8672 C.ar    
  21 C21          -11.1985     4.2324    -0.9537 C.ar    
  22 C22          -12.5679     4.2005    -1.1433 C.ar    
  23 C23          -13.1957     2.9657    -1.2409 C.ar    
  24 C24          -12.4415     1.8105    -1.1466 C.ar    
  25 N25          -11.1373     1.8657    -0.9709 N.ar    
  26 Cl26          -6.6915     5.7819    -0.3192 Cl      
  27 H27           -3.7399    -4.7875    -0.6202 H       
  28 H28           -5.8545    -5.9957    -1.1250 H       
  29 H29           -7.9511    -4.7171    -1.3144 H       
  30 H30           -5.9946    -0.1898    -1.3377 H       
  31 H31           -6.2823    -0.4020     0.4102 H       
  32 H32           -3.1803    -2.1033     0.7216 H       
  33 H33           -2.8890    -1.8844    -1.0252 H       
  34 H34           -6.3112     0.9263    -0.3074 H       
  35 H35           -3.9250     5.2434     0.0559 H       
  36 H36           -2.6749     3.1354     0.2213 H       
  37 H37          -10.6784     5.1755    -0.8732 H       
  38 H38          -13.1367     5.1159    -1.2137 H       
  39 H39          -14.2640     2.9081    -1.3888 H       
  40 H40          -12.9283     0.8493    -1.2219 H       
@<TRIPOS>BOND
   1    1    2 ar
   2    1    6 ar
   3    1    8 1
   4    2    3 ar
   5    2    9 1
   6    3    4 ar
   7    3   27 1
   8    4    5 ar
   9    4   28 1
  10    5    6 ar
  11    5   29 1
  12    7    8 1
  13    7    9 1
  14    7   10 am
  15    8   30 1
  16    8   31 1
  17    9   32 1
  18    9   33 1
  19   10   11 2
  20   10   12 1
  21   12   13 ar
  22   12   17 ar
  23   13   14 ar
  24   13   34 1
  25   14   15 ar
  26   14   18 1
  27   15   16 ar
  28   15   26 1
  29   16   17 ar
  30   16   35 1
  31   17   36 1
  32   18   19 3
  33   19   20 1
  34   20   21 ar
  35   20   25 ar
  36   21   22 ar
  37   21   37 1
  38   22   23 ar
  39   22   38 1
  40   23   24 ar
  41   23   39 1
  42   24   25 ar
  43   24   40 1

#	End of record

