#	Name: ASD03900054
#	Creating user name:	WinNT
#	Creation time:	15. 06. 2019 20:47

#	Modifying user name:	WinNT
#	Modification time:	15. 06. 2019 20:47

#	Program:	/corina/corina34_cracker 3.40 0067  02.08.2006

@<TRIPOS>MOLECULE
ASD03900054
  50   52    0    0    0
SMALL
NO_CHARGES


@<TRIPOS>ATOM
   1 C1            -0.3137     1.2445    -0.3431 C.ar    
   2 C2            -0.1643    -0.1075    -0.1015 C.ar    
   3 C3             1.0654    -0.7121    -0.2857 C.ar    
   4 C4             2.1486     0.0343    -0.7116 C.ar    
   5 C5             2.0044     1.3866    -0.9546 C.ar    
   6 C6             0.7714     1.9955    -0.7709 C.ar    
   7 C7             1.2255    -2.1871    -0.0214 C.3     
   8 C8             2.6569    -2.5891    -0.2677 C.ar    
   9 C9             0.8598    -2.4835     1.4102 C.ar    
  10 C10            0.7944    -3.7931     1.8489 C.ar    
  11 C11            0.4598    -4.0674     3.1608 C.ar    
  12 C12            0.1893    -3.0275     4.0384 C.ar    
  13 C13            0.2556    -1.7144     3.5958 C.ar    
  14 C14            0.5958    -1.4452     2.2842 C.ar    
  15 C15            3.6569    -2.1283     0.5686 C.ar    
  16 C16            4.9697    -2.4957     0.3452 C.ar    
  17 C17            5.2843    -3.3277    -0.7194 C.ar    
  18 C18            4.2792    -3.7887    -1.5571 C.ar    
  19 C19            2.9672    -3.4226    -1.3263 C.ar    
  20 O20            0.6271     3.3257    -1.0089 O.3     
  21 C21           -0.6708     3.8853    -0.7988 C.3     
  22 C22            0.3201    -2.9637    -0.9423 C.2     
  23 O23           -0.3831    -2.3793    -1.7322 O.2     
  24 O24            0.2948    -4.3045    -0.8850 O.3     
  25 Na25          -0.9331    -5.2394    -2.1413 Du      
  26 O26           -0.1405    -3.2948     5.3294 O.3     
  27 C27           -0.4060    -2.1749     6.1764 C.3     
  28 O28            6.5751    -3.6902    -0.9415 O.3     
  29 C29            6.8252    -4.5490    -2.0560 C.3     
  30 H30           -1.2755     1.7154    -0.2034 H       
  31 H31           -1.0087    -0.6925     0.2319 H       
  32 H32            3.1083    -0.4401    -0.8540 H       
  33 H33            2.8508     1.9692    -1.2868 H       
  34 H34            1.0048    -4.6022     1.1652 H       
  35 H35            0.4085    -5.0905     3.5029 H       
  36 H36            0.0451    -0.9032     4.2770 H       
  37 H37            0.6479    -0.4231     1.9393 H       
  38 H38            3.4115    -1.4803     1.3970 H       
  39 H39            5.7505    -2.1352     0.9985 H       
  40 H40            4.5216    -4.4363    -2.3867 H       
  41 H41            2.1843    -3.7815    -1.9779 H       
  42 H42           -0.6477     4.9515    -1.0243 H       
  43 H43           -1.3897     3.3912    -1.4524 H       
  44 H44           -0.9652     3.7401     0.2406 H       
  45 H45            0.4778    -1.5390     6.2255 H       
  46 H46           -1.2423    -1.6042     5.7726 H       
  47 H47           -0.6562    -2.5274     7.1770 H       
  48 H48            6.2772    -5.4822    -1.9258 H       
  49 H49            6.4965    -4.0596    -2.9728 H       
  50 H50            7.8926    -4.7604    -2.1195 H       
@<TRIPOS>BOND
   1    1    2 ar
   2    1    6 ar
   3    1   30 1
   4    2    3 ar
   5    2   31 1
   6    3    4 ar
   7    3    7 1
   8    4    5 ar
   9    4   32 1
  10    5    6 ar
  11    5   33 1
  12    6   20 1
  13    7   22 1
  14    7    8 1
  15    7    9 1
  16    8   15 ar
  17    8   19 ar
  18    9   10 ar
  19    9   14 ar
  20   10   11 ar
  21   10   34 1
  22   11   12 ar
  23   11   35 1
  24   12   26 1
  25   12   13 ar
  26   13   14 ar
  27   13   36 1
  28   14   37 1
  29   15   16 ar
  30   15   38 1
  31   16   17 ar
  32   16   39 1
  33   17   28 1
  34   17   18 ar
  35   18   19 ar
  36   18   40 1
  37   19   41 1
  38   20   21 1
  39   21   42 1
  40   21   43 1
  41   21   44 1
  42   22   23 2
  43   22   24 1
  44   24   25 1
  45   26   27 1
  46   27   45 1
  47   27   46 1
  48   27   47 1
  49   28   29 1
  50   29   48 1
  51   29   49 1
  52   29   50 1

#	End of record

