#	Name: ASD00170170
#	Creating user name:	WinNT
#	Creation time:	15. 06. 2019 18:31

#	Modifying user name:	WinNT
#	Modification time:	15. 06. 2019 18:31

#	Program:	/corina/corina34_cracker 3.40 0067  02.08.2006

@<TRIPOS>MOLECULE
ASD00170170
  30   32    0    0    0
SMALL
NO_CHARGES


@<TRIPOS>ATOM
   1 C1            -0.0266     1.3320    -0.1408 C.2     
   2 C2            -0.0036     0.0041    -0.1775 C.2     
   3 C3            -1.3277    -0.5834     0.0171 C.2     
   4 C4            -2.3111     0.3519     0.1956 C.2     
   5 S5            -1.6639     1.9238     0.1395 S.3     
   6 N6            -3.6444     0.0593     0.3990 N.pl3   
   7 C7            -1.5767    -2.0248     0.0207 C.2     
   8 C8            -1.8226    -2.7358    -1.2525 C.ar    
   9 C9             1.3745     1.8950    -0.3485 C.3     
  10 C10            2.3221     0.7096    -0.0758 C.3     
  11 C11            1.4195    -0.4933    -0.4156 C.3     
  12 O12           -1.5816    -2.6392     1.0720 O.2     
  13 C13           -1.9538    -4.1256    -1.2648 C.ar    
  14 C14           -2.1835    -4.7831    -2.4550 C.ar    
  15 C15           -2.2839    -4.0674    -3.6366 C.ar    
  16 C16           -2.1541    -2.6884    -3.6307 C.ar    
  17 C17           -1.9300    -2.0194    -2.4458 C.ar    
  18 Cl18          -2.5731    -4.9021    -5.1311 Cl      
  19 H19           -3.9531    -0.8587     0.3456 H       
  20 H20           -4.2728     0.7716     0.5953 H       
  21 H21            1.4934     2.2476    -1.3731 H       
  22 H22            1.5664     2.7039     0.3564 H       
  23 H23            3.1907     0.7444    -0.7335 H       
  24 H24            2.6271     0.6860     0.9705 H       
  25 H25            1.6428    -1.3327     0.2429 H       
  26 H26            1.5505    -0.7829    -1.4582 H       
  27 H27           -1.8754    -4.6848    -0.3442 H       
  28 H28           -2.2849    -5.8583    -2.4659 H       
  29 H29           -2.2326    -2.1357    -4.5552 H       
  30 H30           -1.8289    -0.9441    -2.4423 H       
@<TRIPOS>BOND
   1    1    2 2
   2    1    9 1
   3    1    5 1
   4    2    3 1
   5    2   11 1
   6    3    4 2
   7    3    7 1
   8    4    5 1
   9    4    6 1
  10    6   19 1
  11    6   20 1
  12    7    8 1
  13    7   12 2
  14    8   13 ar
  15    8   17 ar
  16    9   10 1
  17    9   21 1
  18    9   22 1
  19   10   11 1
  20   10   23 1
  21   10   24 1
  22   11   25 1
  23   11   26 1
  24   13   14 ar
  25   13   27 1
  26   14   15 ar
  27   14   28 1
  28   15   16 ar
  29   15   18 1
  30   16   17 ar
  31   16   29 1
  32   17   30 1

#	End of record

