#	Name: ASD04910463
#	Creating user name:	WinNT
#	Creation time:	15. 06. 2019 20:55

#	Modifying user name:	WinNT
#	Modification time:	15. 06. 2019 20:55

#	Program:	/corina/corina34_cracker 3.40 0067  02.08.2006

@<TRIPOS>MOLECULE
ASD04910463
  68   71    0    0    0
SMALL
NO_CHARGES


@<TRIPOS>ATOM
   1 C1             1.1443     1.7713    -0.6447 C.2     
   2 C2             0.9805     0.2733    -0.6351 C.3     
   3 C3             2.3310    -0.3856    -0.3468 C.3     
   4 O4             2.2298     2.2617    -0.4417 O.2     
   5 O5             0.0854     2.5607    -0.8842 O.3     
   6 C6             3.2361    -2.6346    -0.1025 C.2     
   7 C7             3.0754    -4.1043    -0.0931 C.ar    
   8 C8             4.1755    -4.9281     0.1499 C.ar    
   9 C9             4.0187    -6.2987     0.1577 C.ar    
  10 C10            2.7743    -6.8570    -0.0751 C.ar    
  11 C11            1.6797    -6.0460    -0.3166 C.ar    
  12 C12            1.8217    -4.6738    -0.3215 C.ar    
  13 O13            4.3280    -2.1413     0.1017 O.2     
  14 N14            2.1717    -1.8419    -0.3375 N.am    
  15 C15            2.6106    -8.3551    -0.0660 C.3     
  16 C16            2.0331    -8.7969     1.2802 C.3     
  17 C17            1.9833   -10.3250     1.3370 C.3     
  18 C18            1.4058   -10.7668     2.6832 C.3     
  19 O19            1.7224    -8.7436    -1.1158 O.3     
  20 C20            1.9700    -9.9333    -1.7251 C.ar    
  21 C21            3.0886   -10.6740    -1.3714 C.ar    
  22 C22            3.3403   -11.8826    -1.9896 C.ar    
  23 C23            2.4738   -12.3567    -2.9653 C.ar    
  24 C24            1.3547   -11.6152    -3.3189 C.ar    
  25 C25            1.1010   -10.4092    -2.6963 C.ar    
  26 C26            0.4137   -12.1292    -4.3778 C.3     
  27 C27            4.5556   -12.6868    -1.6057 C.3     
  28 N28            2.7294   -13.5846    -3.5941 N.pl3   
  29 N29            3.9109   -13.9413    -4.2567 N.2     
  30 C30            3.7728   -15.1610    -4.7114 C.2     
  31 C31            2.5007   -15.6202    -4.3537 C.2     
  32 C32            1.8811   -14.6351    -3.6627 C.2     
  33 C33            1.9244   -16.9750    -4.6755 C.3     
  34 C34            1.7931   -17.3543    -6.1518 C.3     
  35 C35            2.8653   -18.0165    -5.2843 C.3     
  36 H36            0.2660    -0.0092     0.1380 H       
  37 H37            0.6145    -0.0584    -1.6068 H       
  38 H38            3.0455    -0.1031    -1.1199 H       
  39 H39            2.6970    -0.0539     0.6249 H       
  40 H40            0.2397     3.5153    -0.8801 H       
  41 H41            5.1475    -4.4936     0.3310 H       
  42 H42            4.8691    -6.9373     0.3456 H       
  43 H43            0.7110    -6.4881    -0.4976 H       
  44 H44            0.9656    -4.0417    -0.5058 H       
  45 H45            1.3003    -2.2355    -0.5005 H       
  46 H46            3.5811    -8.8276    -0.2177 H       
  47 H47            2.6647    -8.4238     2.0865 H       
  48 H48            1.0258    -8.3960     1.3926 H       
  49 H49            1.3517   -10.6981     0.5307 H       
  50 H50            2.9906   -10.7258     1.2246 H       
  51 H51            1.3702   -11.8554     2.7236 H       
  52 H52            2.0373   -10.3937     3.4895 H       
  53 H53            0.3984   -10.3659     2.7955 H       
  54 H54            3.7628   -10.3050    -0.6127 H       
  55 H55            0.2280    -9.8344    -2.9681 H       
  56 H56           -0.3861   -12.7007    -3.9068 H       
  57 H57           -0.0136   -11.2880    -4.9236 H       
  58 H58            0.9602   -12.7708    -5.0690 H       
  59 H59            4.3130   -13.3307    -0.7602 H       
  60 H60            4.8677   -13.2997    -2.4513 H       
  61 H61            5.3650   -12.0118    -1.3278 H       
  62 H62            4.5133   -15.7169    -5.2673 H       
  63 H63            0.8867   -14.6792    -3.2438 H       
  64 H64            1.1522   -17.3313    -3.9937 H       
  65 H65            0.9347   -17.9606    -6.4413 H       
  66 H66            2.1235   -16.6240    -6.8905 H       
  67 H67            3.9012   -17.7218    -5.4521 H       
  68 H68            2.7124   -19.0584    -5.0029 H       
@<TRIPOS>BOND
   1    1    2 1
   2    1    4 2
   3    1    5 1
   4    2    3 1
   5    2   36 1
   6    2   37 1
   7    3   14 1
   8    3   38 1
   9    3   39 1
  10    5   40 1
  11    6    7 1
  12    6   13 2
  13    6   14 am
  14    7    8 ar
  15    7   12 ar
  16    8    9 ar
  17    8   41 1
  18    9   10 ar
  19    9   42 1
  20   10   11 ar
  21   10   15 1
  22   11   12 ar
  23   11   43 1
  24   12   44 1
  25   14   45 1
  26   15   16 1
  27   15   19 1
  28   15   46 1
  29   16   17 1
  30   16   47 1
  31   16   48 1
  32   17   18 1
  33   17   49 1
  34   17   50 1
  35   18   51 1
  36   18   52 1
  37   18   53 1
  38   19   20 1
  39   20   21 ar
  40   20   25 ar
  41   21   22 ar
  42   21   54 1
  43   22   23 ar
  44   22   27 1
  45   23   24 ar
  46   23   28 1
  47   24   25 ar
  48   24   26 1
  49   25   55 1
  50   26   56 1
  51   26   57 1
  52   26   58 1
  53   27   59 1
  54   27   60 1
  55   27   61 1
  56   28   29 1
  57   28   32 1
  58   29   30 2
  59   30   31 1
  60   30   62 1
  61   31   32 2
  62   31   33 1
  63   32   63 1
  64   33   34 1
  65   33   35 1
  66   33   64 1
  67   34   35 1
  68   34   65 1
  69   34   66 1
  70   35   67 1
  71   35   68 1

#	End of record

