#	Name: ASD06540001
#	Creating user name:	WinNT
#	Creation time:	15. 06. 2019 21:06

#	Modifying user name:	WinNT
#	Modification time:	15. 06. 2019 21:06

#	Program:	/corina/corina34_cracker 3.40 0067  02.08.2006

@<TRIPOS>MOLECULE
ASD06540001
  45   49    0    0    0
SMALL
NO_CHARGES


@<TRIPOS>ATOM
   1 C1            -0.0167     1.3888    -0.1723 C.ar    
   2 C2             0.0023     0.0310     0.2152 C.ar    
   3 C3             1.1838    -0.6264     0.3746 C.ar    
   4 C4             2.3917     0.0219     0.1608 C.ar    
   5 C5             2.4052     1.3459    -0.2178 C.ar    
   6 C6             1.2064     2.0355    -0.3865 C.ar    
   7 C7             3.6891    -0.7227     0.3435 C.3     
   8 S8             3.9397     2.1683    -0.4890 S.o2    
   9 C9            -0.8495     3.4110    -0.7350 C.2     
  10 N10           -1.0755     2.1900    -0.3815 N.2     
  11 S11            0.8802     3.7020    -0.8554 S.3     
  12 C12           -1.8954     4.4190    -1.0035 C.ar    
  13 C13           -3.2396     4.0811    -0.8809 C.ar    
  14 C14           -3.8649     6.3348    -1.5142 C.ar    
  15 C15           -2.4918     6.6550    -1.6262 C.ar    
  16 C16           -1.5385     5.7209    -1.3771 C.ar    
  17 C17           -6.1017     6.6197    -1.5520 C.2     
  18 N18           -4.9246     7.1246    -1.7201 N.2     
  19 C19           -4.2199     5.0329    -1.1346 C.ar    
  20 S20           -5.9780     4.9328    -1.0716 S.3     
  21 C21           -7.3698     7.3539    -1.7379 C.ar    
  22 C22           -7.3512     8.6961    -2.1241 C.ar    
  23 C23           -8.5353     9.3779    -2.2970 C.ar    
  24 C24           -9.7490     8.7313    -2.0870 C.ar    
  25 C25           -9.7708     7.3946    -1.7023 C.ar    
  26 C26           -8.5901     6.7058    -1.5333 C.ar    
  27 N27          -10.9453     9.4241    -2.2619 N.pl3   
  28 O28            4.3724     2.6391     0.7800 O.2     
  29 O29            4.7193     1.3045    -1.3047 O.2     
  30 O30            3.6466     3.4035    -1.3286 O.3     
  31 H31           -0.9279    -0.4902     0.3868 H       
  32 H32            1.1808    -1.6648     0.6714 H       
  33 H33            4.0189    -1.1189    -0.6169 H       
  34 H34            4.4459    -0.0433     0.7355 H       
  35 H35            3.5408    -1.5446     1.0439 H       
  36 H36           -3.5209     3.0801    -0.5892 H       
  37 H37           -2.1983     7.6527    -1.9178 H       
  38 H38           -0.4951     5.9843    -1.4675 H       
  39 H39           -6.4092     9.1988    -2.2866 H       
  40 H40           -8.5215    10.4157    -2.5956 H       
  41 H41          -10.7146     6.8952    -1.5400 H       
  42 H42           -8.6077     5.6669    -1.2386 H       
  43 H43          -10.9313    10.3563    -2.5298 H       
  44 H44          -11.7922     8.9742    -2.1157 H       
  45 H45            4.4290     3.9323    -1.5369 H       
@<TRIPOS>BOND
   1    1    2 ar
   2    1    6 ar
   3    1   10 1
   4    2    3 ar
   5    2   31 1
   6    3    4 ar
   7    3   32 1
   8    4    5 ar
   9    4    7 1
  10    5    6 ar
  11    5    8 1
  12    6   11 1
  13    7   33 1
  14    7   34 1
  15    7   35 1
  16    8   28 2
  17    8   29 2
  18    8   30 1
  19    9   10 2
  20    9   11 1
  21    9   12 1
  22   12   13 ar
  23   12   16 ar
  24   13   19 ar
  25   13   36 1
  26   14   15 ar
  27   14   19 ar
  28   14   18 1
  29   15   16 ar
  30   15   37 1
  31   16   38 1
  32   17   18 2
  33   17   20 1
  34   17   21 1
  35   19   20 1
  36   21   22 ar
  37   21   26 ar
  38   22   23 ar
  39   22   39 1
  40   23   24 ar
  41   23   40 1
  42   24   25 ar
  43   24   27 1
  44   25   26 ar
  45   25   41 1
  46   26   42 1
  47   27   43 1
  48   27   44 1
  49   30   45 1

#	End of record

