#	Name: ASD01122043
#	Creating user name:	WinNT
#	Creation time:	15. 06. 2019 18:59

#	Modifying user name:	WinNT
#	Modification time:	15. 06. 2019 18:59

#	Program:	/corina/corina34_cracker 3.40 0067  02.08.2006

@<TRIPOS>MOLECULE
ASD01122043
  50   51    0    0    0
SMALL
NO_CHARGES


@<TRIPOS>ATOM
   1 N1            -0.0158     1.3157     0.0093 N.ar    
   2 C2             0.0021    -0.0041     0.0020 C.ar    
   3 N3             1.1240    -0.6945    -0.0124 N.ar    
   4 C4             2.2985    -0.0769    -0.0203 C.ar    
   5 C5             2.3333     1.3259    -0.0131 C.ar    
   6 C6             1.1122     2.0190     0.0023 C.ar    
   7 N7             3.6164    -0.4936    -0.0351 N.am    
   8 C8             4.4003     0.6368    -0.0365 C.2     
   9 N9             3.6389     1.7005    -0.0236 N.2     
  10 N10            1.0837     3.4043     0.0095 N.pl3   
  11 P11            8.9080     3.2386    -0.0664 P.3     
  12 O12            8.6360     3.9934     1.2792 O.co2   
  13 O13            8.4170     4.1177    -1.2667 O.co2   
  14 O14           10.4441     2.9674    -0.2118 O.co2   
  15 N15            5.7791     0.6472    -0.0501 N.pl3   
  16 C16            6.5021     1.9214    -0.0501 C.3     
  17 O17            5.2375    -2.0024    -0.0579 O.2     
  18 C18            4.0520    -1.7689    -0.0457 C.2     
  19 C19            3.0606    -2.9039    -0.0424 C.3     
  20 O20            3.7239    -4.1169    -0.4035 O.3     
  21 C21            2.4568    -3.0495     1.3558 C.3     
  22 O22            3.5056    -3.2064     2.3136 O.3     
  23 C23            1.5450    -4.2776     1.3922 C.3     
  24 O24            2.2778    -5.4277     0.9654 O.3     
  25 C25            1.0398    -4.4956     2.8199 C.3     
  26 O26            0.0980    -5.5702     2.8330 O.3     
  27 C27            8.0083     1.6531    -0.0664 C.3     
  28 C28           -0.4380    -5.8576     4.1262 C.3     
  29 C29           -1.4291    -7.0184     4.0210 C.3     
  30 H30           -0.9371    -0.5373     0.0085 H       
  31 H31            1.9136     3.9065     0.0040 H       
  32 H32            0.2339     3.8719     0.0202 H       
  33 H33            6.2704    -0.1892    -0.0596 H       
  34 H34            6.2258     2.4959    -0.9342 H       
  35 H35            6.2433     2.4860     0.8457 H       
  36 H36            2.2676    -2.6957    -0.7607 H       
  37 H37            4.4432    -4.3647     0.1935 H       
  38 H38            1.8762    -2.1587     1.5955 H       
  39 H39            4.0642    -3.9810     2.1619 H       
  40 H40            0.6963    -4.1199     0.7267 H       
  41 H41            3.0488    -5.6285     1.5133 H       
  42 H42            1.8803    -4.7411     3.4692 H       
  43 H43            0.5579    -3.5858     3.1777 H       
  44 H44            8.2671     1.0885    -0.9621 H       
  45 H45            8.2847     1.0785     0.8177 H       
  46 H46            0.3718    -6.1313     4.8025 H       
  47 H47           -0.9506    -4.9760     4.5111 H       
  48 H48           -2.2388    -6.7447     3.3447 H       
  49 H49           -0.9165    -7.9000     3.6361 H       
  50 H50           -1.8379    -7.2376     5.0074 H       
@<TRIPOS>BOND
   1    1    2 ar
   2    1    6 ar
   3    2    3 ar
   4    2   30 1
   5    3    4 ar
   6    4    5 ar
   7    4    7 1
   8    5    6 ar
   9    5    9 1
  10    6   10 1
  11    7    8 1
  12    7   18 am
  13    8    9 2
  14    8   15 1
  15   10   31 1
  16   10   32 1
  17   11   12 ar
  18   11   13 ar
  19   11   14 ar
  20   11   27 1
  21   15   16 1
  22   15   33 1
  23   16   27 1
  24   16   34 1
  25   16   35 1
  26   17   18 2
  27   18   19 1
  28   19   21 1
  29   19   20 1
  30   19   36 1
  31   20   37 1
  32   21   22 1
  33   21   23 1
  34   21   38 1
  35   22   39 1
  36   23   25 1
  37   23   24 1
  38   23   40 1
  39   24   41 1
  40   25   26 1
  41   25   42 1
  42   25   43 1
  43   26   28 1
  44   27   44 1
  45   27   45 1
  46   28   29 1
  47   28   46 1
  48   28   47 1
  49   29   48 1
  50   29   49 1
  51   29   50 1

#	End of record

