#	Name: ASD01560022
#	Creating user name:	WinNT
#	Creation time:	15. 06. 2019 19:22

#	Modifying user name:	WinNT
#	Modification time:	15. 06. 2019 19:22

#	Program:	/corina/corina34_cracker 3.40 0067  02.08.2006

@<TRIPOS>MOLECULE
ASD01560022
  66   70    0    0    0
SMALL
NO_CHARGES


@<TRIPOS>ATOM
   1 C1            -1.0460     1.6653     1.6259 C.3     
   2 C2             2.8926     2.1048     0.5467 C.3     
   3 C3             2.4913     0.8103     1.2568 C.3     
   4 O4             1.2575     1.0098     1.9495 O.3     
   5 C5             0.0971     0.7656     1.1520 C.3     
   6 C6             3.5805     0.4188     2.2575 C.3     
   7 O7             3.8203     1.5080     3.1509 O.3     
   8 C8             4.7175     1.1972     4.2188 C.3     
   9 C9             4.0935     0.1564     5.1123 C.ar    
  10 C10            6.0079     0.6639     3.6516 C.ar    
  11 C11            4.9974     2.4434     5.0186 C.ar    
  12 C12            4.4910     3.6603     4.6021 C.ar    
  13 C13            4.7478     4.8034     5.3357 C.ar    
  14 C14            5.5106     4.7295     6.4861 C.ar    
  15 C15            6.0163     3.5124     6.9032 C.ar    
  16 C16            5.7559     2.3686     6.1719 C.ar    
  17 C17            2.7338    -0.0843     5.0481 C.ar    
  18 C18            2.1614    -1.0389     5.8678 C.ar    
  19 C19            2.9487    -1.7533     6.7513 C.ar    
  20 C20            4.3086    -1.5133     6.8149 C.ar    
  21 C21            4.8817    -0.5616     5.9921 C.ar    
  22 C22            7.0929     1.5055     3.4922 C.ar    
  23 C23            8.2765     1.0164     2.9719 C.ar    
  24 C24            8.3752    -0.3144     2.6113 C.ar    
  25 C25            7.2905    -1.1563     2.7715 C.ar    
  26 C26            6.1083    -0.6681     3.2959 C.ar    
  27 O27           -1.4364     1.2838     2.9465 O.3     
  28 N28           -0.2996    -0.6385     1.2841 N.pl3   
  29 C29           -1.0118    -1.3671     0.3715 C.2     
  30 C30           -1.1521    -2.6456     0.9201 C.2     
  31 N31           -0.5295    -2.6383     2.1217 N.2     
  32 C32           -0.0214    -1.4590     2.3362 C.2     
  33 N33           -1.5441    -1.1003    -0.8295 N.2     
  34 N34           -2.3642    -3.2713    -1.0253 N.am    
  35 C35           -1.8595    -3.6241     0.1780 C.2     
  36 O36           -2.0084    -4.7531     0.6129 O.2     
  37 O37            3.1499     3.1209     1.5180 O.3     
  38 C38           -2.1923    -2.0116    -1.4993 C.2     
  39 H39           -0.7133     2.7033     1.6310 H       
  40 H40           -1.8955     1.5594     0.9511 H       
  41 H41            3.7918     1.9312    -0.0444 H       
  42 H42            2.0831     2.4255    -0.1089 H       
  43 H43            2.3707     0.0149     0.5214 H       
  44 H44            0.3216     0.9830     0.1078 H       
  45 H45            3.2554    -0.4525     2.8260 H       
  46 H46            4.4986     0.1805     1.7205 H       
  47 H47            3.8950     3.7180     3.7033 H       
  48 H48            4.3527     5.7543     5.0099 H       
  49 H49            5.7119     5.6227     7.0589 H       
  50 H50            6.6126     3.4548     7.8018 H       
  51 H51            6.1510     1.4178     6.4977 H       
  52 H52            2.1186     0.4738     4.3578 H       
  53 H53            1.0989    -1.2265     5.8181 H       
  54 H54            2.5014    -2.4986     7.3922 H       
  55 H55            4.9237    -2.0711     7.5054 H       
  56 H56            5.9441    -0.3741     6.0418 H       
  57 H57            7.0157     2.5453     3.7739 H       
  58 H58            9.1239     1.6741     2.8468 H       
  59 H59            9.2997    -0.6964     2.2042 H       
  60 H60            7.3675    -2.1959     2.4895 H       
  61 H61            5.2608    -1.3258     3.4211 H       
  62 H62           -2.1586     1.8132     3.3116 H       
  63 H63            0.5311    -1.1719     3.2186 H       
  64 H64           -2.8524    -3.9225    -1.5530 H       
  65 H65            3.4102     3.9712     1.1382 H       
  66 H66           -2.6061    -1.7555    -2.4635 H       
@<TRIPOS>BOND
   1    1   27 1
   2    1    5 1
   3    1   39 1
   4    1   40 1
   5    2   37 1
   6    2    3 1
   7    2   41 1
   8    2   42 1
   9    3    4 1
  10    3    6 1
  11    3   43 1
  12    4    5 1
  13    5   28 1
  14    5   44 1
  15    6    7 1
  16    6   45 1
  17    6   46 1
  18    7    8 1
  19    8    9 1
  20    8   10 1
  21    8   11 1
  22    9   17 ar
  23    9   21 ar
  24   10   22 ar
  25   10   26 ar
  26   11   12 ar
  27   11   16 ar
  28   12   13 ar
  29   12   47 1
  30   13   14 ar
  31   13   48 1
  32   14   15 ar
  33   14   49 1
  34   15   16 ar
  35   15   50 1
  36   16   51 1
  37   17   18 ar
  38   17   52 1
  39   18   19 ar
  40   18   53 1
  41   19   20 ar
  42   19   54 1
  43   20   21 ar
  44   20   55 1
  45   21   56 1
  46   22   23 ar
  47   22   57 1
  48   23   24 ar
  49   23   58 1
  50   24   25 ar
  51   24   59 1
  52   25   26 ar
  53   25   60 1
  54   26   61 1
  55   27   62 1
  56   28   29 1
  57   28   32 1
  58   29   30 2
  59   29   33 1
  60   30   31 1
  61   30   35 1
  62   31   32 2
  63   32   63 1
  64   33   38 2
  65   34   35 am
  66   34   38 1
  67   34   64 1
  68   35   36 2
  69   37   65 1
  70   38   66 1

#	End of record

