#	Name: ASD01120383
#	Creating user name:	WinNT
#	Creation time:	15. 06. 2019 18:59

#	Modifying user name:	WinNT
#	Modification time:	15. 06. 2019 18:59

#	Program:	/corina/corina34_cracker 3.40 0067  02.08.2006

@<TRIPOS>MOLECULE
ASD01120383
  28   30    0    0    0
SMALL
NO_CHARGES


@<TRIPOS>ATOM
   1 P1            -0.0198     1.6058     0.0109 P.3     
   2 C2             0.7314    -0.5526     1.0093 C.ar    
   3 C3             0.1159    -0.8491     2.2271 C.ar    
   4 C4             0.8209    -1.4036     3.2513 C.ar    
   5 C5             2.1877    -1.6844     3.0869 C.ar    
   6 C6             2.0711    -0.8165     0.8175 C.ar    
   7 C7             4.9242    -2.2470     2.7587 C.ar    
   8 C8             4.2474    -1.6808     1.6835 C.ar    
   9 S9             6.6047    -2.4960     2.2873 S.3     
  10 C10            6.2710    -1.8261     0.6965 C.2     
  11 N11            5.0303    -1.4825     0.6104 N.2     
  12 N12            7.2021    -1.6870    -0.3143 N.pl3   
  13 O13            0.0021    -0.0041     0.0020 O.3     
  14 C14            4.2575    -2.5233     3.9622 C.ar    
  15 C15            2.9407    -2.2575     4.1307 C.ar    
  16 O16            1.3687     2.1180     0.0004 O.2     
  17 O17           -0.7984     2.1391    -1.2935 O.3     
  18 O18           -0.7733     2.1250     1.3355 O.3     
  19 C19            2.8138    -1.3865     1.8569 C.ar    
  20 H20           -0.9345    -0.6352     2.3586 H       
  21 H21            0.3311    -1.6266     4.1877 H       
  22 H22            2.5427    -0.5853    -0.1262 H       
  23 H23            8.1190    -1.9698    -0.1715 H       
  24 H24            6.9392    -1.3066    -1.1670 H       
  25 H25            4.8113    -2.9635     4.7783 H       
  26 H26            2.4641    -2.4861     5.0724 H       
  27 H27           -0.8503     3.1028    -1.3539 H       
  28 H28           -1.6903     1.8268     1.4088 H       
@<TRIPOS>BOND
   1    1   13 1
   2    1   16 2
   3    1   17 1
   4    1   18 1
   5    2    3 ar
   6    2    6 ar
   7    2   13 1
   8    3    4 ar
   9    3   20 1
  10    4    5 ar
  11    4   21 1
  12    5   15 ar
  13    5   19 ar
  14    6   19 ar
  15    6   22 1
  16    7    8 ar
  17    7    9 1
  18    7   14 ar
  19    8   11 1
  20    8   19 ar
  21    9   10 1
  22   10   11 2
  23   10   12 1
  24   12   23 1
  25   12   24 1
  26   14   15 ar
  27   14   25 1
  28   15   26 1
  29   17   27 1
  30   18   28 1

#	End of record

