#	Name: ASD03092809
#	Creating user name:	WinNT
#	Creation time:	15. 06. 2019 20:33

#	Modifying user name:	WinNT
#	Modification time:	15. 06. 2019 20:33

#	Program:	/corina/corina34_cracker 3.40 0067  02.08.2006

@<TRIPOS>MOLECULE
ASD03092809
  52   54    0    0    0
SMALL
NO_CHARGES


@<TRIPOS>ATOM
   1 C1            -1.1706     1.6779     1.1978 C.3     
   2 C2            -1.3926     0.1805     1.4200 C.3     
   3 C3            -1.4810    -0.5174     0.0872 C.2     
   4 O4            -1.4705     0.1304    -0.9388 O.2     
   5 C5            -1.5796    -1.9778     0.0304 C.2     
   6 C6            -0.5383    -2.8759    -0.1251 C.2     
   7 C7             0.9190    -2.5193    -0.2679 C.3     
   8 N8            -1.0479    -4.1225    -0.1271 N.pl3   
   9 C9            -2.4133    -4.0792     0.0242 C.2     
  10 C10           -2.8006    -2.7828     0.1331 C.2     
  11 C11           -4.2064    -2.2723     0.3185 C.3     
  12 C12           -4.7972    -1.8993    -1.0427 C.3     
  13 C13           -3.3123    -5.2528     0.0677 C.ar    
  14 C14           -4.3800    -5.3507    -0.8256 C.ar    
  15 C15           -5.2152    -6.4477    -0.7803 C.ar    
  16 C16           -4.9958    -7.4504     0.1491 C.ar    
  17 Cl17          -6.0507    -8.8282     0.1998 Cl      
  18 C18           -3.9380    -7.3587     1.0379 C.ar    
  19 C19           -3.0927    -6.2692     0.9983 C.ar    
  20 C20           -0.2941    -5.2955    -0.2639 C.ar    
  21 C21           -0.4265    -6.0787    -1.4028 C.ar    
  22 C22            0.3180    -7.2346    -1.5347 C.ar    
  23 C23            1.1941    -7.6124    -0.5337 C.ar    
  24 C24            1.3282    -6.8345     0.6017 C.ar    
  25 C25            0.5911    -5.6743     0.7366 C.ar    
  26 S26            2.1412    -9.0883    -0.7052 S.o2    
  27 N27            3.5598    -8.6762    -1.4536 N.am    
  28 O28            2.4862    -9.4988     0.6107 O.2     
  29 O29            1.4323    -9.9162    -1.6169 O.2     
  30 H30           -1.1066     2.1827     2.1617 H       
  31 H31           -0.2430     1.8298     0.6459 H       
  32 H32           -2.0040     2.0881     0.6274 H       
  33 H33           -0.5592    -0.2296     1.9903 H       
  34 H34           -2.3202     0.0287     1.9718 H       
  35 H35            1.3610    -2.3943     0.7206 H       
  36 H36            1.4378    -3.3169    -0.7997 H       
  37 H37            1.0122    -1.5888    -0.8279 H       
  38 H38           -4.8171    -3.0487     0.7792 H       
  39 H39           -4.1915    -1.3923     0.9615 H       
  40 H40           -4.1393    -1.1877    -1.5416 H       
  41 H41           -4.8936    -2.7960    -1.6549 H       
  42 H42           -5.7795    -1.4486    -0.9012 H       
  43 H43           -4.5523    -4.5691    -1.5506 H       
  44 H44           -6.0420    -6.5244    -1.4708 H       
  45 H45           -3.7719    -8.1437     1.7609 H       
  46 H46           -2.2652    -6.2011     1.6888 H       
  47 H47           -1.1111    -5.7845    -2.1845 H       
  48 H48            0.2154    -7.8442    -2.4203 H       
  49 H49            2.0133    -7.1322     1.3817 H       
  50 H50            0.6998    -5.0646     1.6214 H       
  51 H51            3.7256    -7.7541    -1.7048 H       
  52 H52            4.2250    -9.3569    -1.6407 H       
@<TRIPOS>BOND
   1    1    2 1
   2    1   30 1
   3    1   31 1
   4    1   32 1
   5    2    3 1
   6    2   33 1
   7    2   34 1
   8    3    4 2
   9    3    5 1
  10    5   10 1
  11    5    6 2
  12    6    7 1
  13    6    8 1
  14    7   35 1
  15    7   36 1
  16    7   37 1
  17    8    9 1
  18    8   20 1
  19    9   10 2
  20    9   13 1
  21   10   11 1
  22   11   12 1
  23   11   38 1
  24   11   39 1
  25   12   40 1
  26   12   41 1
  27   12   42 1
  28   13   19 ar
  29   13   14 ar
  30   14   15 ar
  31   14   43 1
  32   15   16 ar
  33   15   44 1
  34   16   17 1
  35   16   18 ar
  36   18   19 ar
  37   18   45 1
  38   19   46 1
  39   20   25 ar
  40   20   21 ar
  41   21   22 ar
  42   21   47 1
  43   22   23 ar
  44   22   48 1
  45   23   24 ar
  46   23   26 1
  47   24   25 ar
  48   24   49 1
  49   25   50 1
  50   26   27 am
  51   26   28 2
  52   26   29 2
  53   27   51 1
  54   27   52 1

#	End of record

