#	Name: ASD00110043
#	Creating user name:	WinNT
#	Creation time:	15. 06. 2019 18:30

#	Modifying user name:	WinNT
#	Modification time:	15. 06. 2019 18:30

#	Program:	/corina/corina34_cracker 3.40 0067  02.08.2006

@<TRIPOS>MOLECULE
ASD00110043
  53   56    0    0    0
SMALL
NO_CHARGES


@<TRIPOS>ATOM
   1 N1             0.4264     0.0609     1.1543 N.3     
   2 C2            -0.2730     1.6755    -0.5479 C.3     
   3 C3             0.6635    -1.2783     1.4724 C.ar    
   4 N4            -1.1806     2.2958     0.4274 N.3     
   5 C5            -0.6518     2.1643     1.7922 C.3     
   6 C6            -0.4811     0.6812     2.1296 C.3     
   7 C7            -0.1023     0.1924    -0.2105 C.3     
   8 C8             1.7635    -1.6258     2.2464 C.ar    
   9 C9             1.9947    -2.9508     2.5595 C.ar    
  10 C10            1.1329    -3.9313     2.1030 C.ar    
  11 C11            0.0369    -3.5889     1.3324 C.ar    
  12 C12           -0.2033    -2.2651     1.0204 C.ar    
  13 C13            0.8739    -0.4471    -1.1999 C.3     
  14 N14            2.1300     0.3145    -1.2100 N.3     
  15 C15            4.1706     0.9278    -0.0043 C.3     
  16 C16            2.9114     0.0578     0.0078 C.3     
  17 C17            2.9194     0.0125    -2.4122 C.3     
  18 C18            4.1786     0.8824    -2.4244 C.3     
  19 N19            4.9600     0.6257    -1.2065 N.3     
  20 C20            6.1543     1.3498    -1.2161 C.ar    
  21 C21            7.0466     1.2068    -2.2711 C.ar    
  22 C22            8.2264     1.9247    -2.2777 C.ar    
  23 C23            8.5199     2.7851    -1.2356 C.ar    
  24 C24            7.6338     2.9299    -0.1839 C.ar    
  25 C25            6.4498     2.2190    -0.1736 C.ar    
  26 H26           -0.6923     1.7747    -1.5492 H       
  27 H27            0.6969     2.1713    -0.5087 H       
  28 H28           -1.3518     3.2632     0.1976 H       
  29 H29            0.3138     2.6657     1.8580 H       
  30 H30           -1.3473     2.6199     2.4971 H       
  31 H31           -1.4510     0.1854     2.0904 H       
  32 H32           -0.0618     0.5820     3.1308 H       
  33 H33           -1.0679    -0.3090    -0.2763 H       
  34 H34            2.4373    -0.8606     2.6026 H       
  35 H35            2.8497    -3.2216     3.1611 H       
  36 H36            1.3164    -4.9668     2.3487 H       
  37 H37           -0.6341    -4.3571     0.9775 H       
  38 H38           -1.0619    -1.9979     0.4222 H       
  39 H39            1.0749    -1.4753    -0.8990 H       
  40 H40            0.4365    -0.4396    -2.1983 H       
  41 H41            3.8857     1.9798    -0.0112 H       
  42 H42            4.7662     0.7178     0.8841 H       
  43 H43            2.3099     0.3008     0.8838 H       
  44 H44            3.1962    -0.9937     0.0422 H       
  45 H45            3.2043    -1.0396    -2.4053 H       
  46 H46            2.3238     0.2224    -3.3006 H       
  47 H47            4.7801     0.6394    -3.3003 H       
  48 H48            3.8938     1.9340    -2.4588 H       
  49 H49            6.8182     0.5347    -3.0850 H       
  50 H50            8.9208     1.8137    -3.0974 H       
  51 H51            9.4433     3.3451    -1.2431 H       
  52 H52            7.8660     3.6027     0.6284 H       
  53 H53            5.7562     2.3358     0.6460 H       
@<TRIPOS>BOND
   1    1    7 1
   2    1    3 1
   3    1    6 1
   4    2    4 1
   5    2    7 1
   6    2   26 1
   7    2   27 1
   8    3   12 ar
   9    3    8 ar
  10    4    5 1
  11    4   28 1
  12    5    6 1
  13    5   29 1
  14    5   30 1
  15    6   31 1
  16    6   32 1
  17    7   13 1
  18    7   33 1
  19    8    9 ar
  20    8   34 1
  21    9   10 ar
  22    9   35 1
  23   10   11 ar
  24   10   36 1
  25   11   12 ar
  26   11   37 1
  27   12   38 1
  28   13   14 1
  29   13   39 1
  30   13   40 1
  31   14   17 1
  32   14   16 1
  33   15   16 1
  34   15   19 1
  35   15   41 1
  36   15   42 1
  37   16   43 1
  38   16   44 1
  39   17   18 1
  40   17   45 1
  41   17   46 1
  42   18   19 1
  43   18   47 1
  44   18   48 1
  45   19   20 1
  46   20   21 ar
  47   20   25 ar
  48   21   22 ar
  49   21   49 1
  50   22   23 ar
  51   22   50 1
  52   23   24 ar
  53   23   51 1
  54   24   25 ar
  55   24   52 1
  56   25   53 1

#	End of record

