#	Name: ASD07300427
#	Creating user name:	WinNT
#	Creation time:	15. 06. 2019 21:09

#	Modifying user name:	WinNT
#	Modification time:	15. 06. 2019 21:09

#	Program:	/corina/corina34_cracker 3.40 0067  02.08.2006

@<TRIPOS>MOLECULE
ASD07300427
  29   31    0    0    0
SMALL
NO_CHARGES


@<TRIPOS>ATOM
   1 N1            -0.0169     1.3944     0.0097 N.pl3   
   2 N2             0.0021    -0.0041     0.0020 N.2     
   3 C3             1.2311    -0.4352    -0.0120 C.2     
   4 C4             2.1138     0.7279    -0.0142 C.ar    
   5 C5             3.5035     0.8918    -0.0272 C.ar    
   6 C6             4.0372     2.1654    -0.0262 C.ar    
   7 C7             3.1986     3.2805    -0.0117 C.ar    
   8 C8             1.8413     3.1328     0.0011 C.ar    
   9 C9             1.2777     1.8602    -0.0002 C.ar    
  10 N10            5.4256     2.3385    -0.0392 N.pl3   
  11 C11           -1.1639     2.1893     0.0197 C.ar    
  12 C12           -2.3560     1.6844    -0.4872 C.ar    
  13 C13           -3.4860     2.4830    -0.4708 C.ar    
  14 C14           -3.3840     3.7642     0.0541 C.ar    
  15 C15           -2.1675     4.2005     0.5407 C.ar    
  16 N16           -1.1082     3.4148     0.5165 N.ar    
  17 C17           -4.5882     4.6694     0.0921 C.3     
  18 H18            1.5421    -1.4694    -0.0200 H       
  19 H19            4.1533     0.0292    -0.0377 H       
  20 H20            3.6279     4.2715    -0.0103 H       
  21 H21            1.2041     4.0047     0.0126 H       
  22 H22            6.0108     1.5649    -0.0489 H       
  23 H23            5.8030     3.2321    -0.0385 H       
  24 H24           -2.3995     0.6827    -0.8885 H       
  25 H25           -4.4258     2.1179    -0.8580 H       
  26 H26           -2.0832     5.1965     0.9497 H       
  27 H27           -5.1213     4.5257     1.0319 H       
  28 H28           -4.2651     5.7074     0.0128 H       
  29 H29           -5.2492     4.4300    -0.7408 H       
@<TRIPOS>BOND
   1    1    2 1
   2    1    9 1
   3    1   11 1
   4    2    3 2
   5    3    4 1
   6    3   18 1
   7    4    5 ar
   8    4    9 ar
   9    5    6 ar
  10    5   19 1
  11    6    7 ar
  12    6   10 1
  13    7    8 ar
  14    7   20 1
  15    8    9 ar
  16    8   21 1
  17   10   22 1
  18   10   23 1
  19   11   12 ar
  20   11   16 ar
  21   12   13 ar
  22   12   24 1
  23   13   14 ar
  24   13   25 1
  25   14   15 ar
  26   14   17 1
  27   15   16 ar
  28   15   26 1
  29   17   27 1
  30   17   28 1
  31   17   29 1

#	End of record

