#	Name: ASD03200024
#	Creating user name:	WinNT
#	Creation time:	15. 06. 2019 20:34

#	Modifying user name:	WinNT
#	Modification time:	15. 06. 2019 20:34

#	Program:	/corina/corina34_cracker 3.40 0067  02.08.2006

@<TRIPOS>MOLECULE
ASD03200024
  50   53    0    0    0
SMALL
NO_CHARGES


@<TRIPOS>ATOM
   1 C1             0.9627    -1.0199    -0.1640 C.3     
   2 N2            -0.0378     0.0435    -0.0072 N.3     
   3 C3             0.2917     0.9199     1.1241 C.3     
   4 C4             1.6383     1.6006     0.8684 C.3     
   5 C5             2.7205     0.5313     0.6950 C.3     
   6 C6             2.3293    -0.3972    -0.4581 C.3     
   7 C7            -1.3178    -0.4911     0.1313 C.ar    
   8 C8            -2.0232    -0.3571     1.3246 C.ar    
   9 C9            -3.2883    -0.9001     1.4221 C.ar    
  10 N10           -3.8328    -1.5405     0.4049 N.ar    
  11 C11           -3.2013    -1.6916    -0.7442 C.ar    
  12 C12           -1.9306    -1.1720    -0.9274 C.ar    
  13 N13           -1.2643    -1.3351    -2.1494 N.am    
  14 C14           -1.4474    -2.4577    -2.8723 C.2     
  15 C15           -0.8519    -2.5758    -4.2056 C.2     
  16 O16           -2.1078    -3.3738    -2.4172 O.2     
  17 C17           -1.0863    -3.6507    -5.0346 C.2     
  18 S18           -0.1854    -3.3946    -6.5269 S.3     
  19 C19            0.4267    -1.8660    -5.9056 C.2     
  20 N20           -0.0427    -1.6489    -4.7194 N.2     
  21 C21            1.3385    -0.9595    -6.6348 C.ar    
  22 N22            1.9775     2.4610     2.0098 N.3     
  23 N23           -1.8861    -4.7383    -4.7463 N.pl3   
  24 C24            1.6965    -1.2383    -7.9566 C.ar    
  25 C25            2.5493    -0.3857    -8.6323 C.ar    
  26 C26            3.0475     0.7402    -8.0030 C.ar    
  27 C27            2.6963     1.0217    -6.6931 C.ar    
  28 C28            1.8413     0.1817    -6.0082 C.ar    
  29 Cl29           3.3277     2.4381    -5.9128 Cl      
  30 F30            1.2106    -2.3383    -8.5722 F       
  31 H31            1.0196    -1.6033     0.7550 H       
  32 H32            0.6747    -1.6705    -0.9897 H       
  33 H33           -0.4835     1.6783     1.2338 H       
  34 H34            0.3518     0.3274     2.0370 H       
  35 H35            1.5749     2.2043    -0.0369 H       
  36 H36            3.6732     1.0104     0.4697 H       
  37 H37            2.8111    -0.0476     1.6141 H       
  38 H38            3.0746    -1.1861    -0.5589 H       
  39 H39            2.2767     0.1751    -1.3843 H       
  40 H40           -1.5858     0.1647     2.1629 H       
  41 H41           -3.8407    -0.7997     2.3447 H       
  42 H42           -3.6824    -2.2230    -1.5520 H       
  43 H43           -0.6712    -0.6400    -2.4750 H       
  44 H44            2.8633     2.9218     1.8646 H       
  45 H45            1.2453     3.1323     2.1867 H       
  46 H46           -2.3440    -4.7909    -3.8928 H       
  47 H47           -1.9903    -5.4498    -5.3973 H       
  48 H48            2.8274    -0.5996    -9.6537 H       
  49 H49            3.7137     1.4030    -8.5351 H       
  50 H50            1.5683     0.4030    -4.9870 H       
@<TRIPOS>BOND
   1    1    2 1
   2    1    6 1
   3    1   31 1
   4    1   32 1
   5    2    3 1
   6    2    7 1
   7    3    4 1
   8    3   33 1
   9    3   34 1
  10    4    5 1
  11    4   22 1
  12    4   35 1
  13    5    6 1
  14    5   36 1
  15    5   37 1
  16    6   38 1
  17    6   39 1
  18    7    8 ar
  19    7   12 ar
  20    8    9 ar
  21    8   40 1
  22    9   10 ar
  23    9   41 1
  24   10   11 ar
  25   11   12 ar
  26   11   42 1
  27   12   13 1
  28   13   14 am
  29   13   43 1
  30   14   15 1
  31   14   16 2
  32   15   17 2
  33   15   20 1
  34   17   18 1
  35   17   23 1
  36   18   19 1
  37   19   20 2
  38   19   21 1
  39   21   24 ar
  40   21   28 ar
  41   22   44 1
  42   22   45 1
  43   23   46 1
  44   23   47 1
  45   24   25 ar
  46   24   30 1
  47   25   26 ar
  48   25   48 1
  49   26   27 ar
  50   26   49 1
  51   27   28 ar
  52   27   29 1
  53   28   50 1

#	End of record

