#	Name: ASD08170151
#	Creating user name:	WinNT
#	Creation time:	15. 06. 2019 21:17

#	Modifying user name:	WinNT
#	Modification time:	15. 06. 2019 21:17

#	Program:	/corina/corina34_cracker 3.40 0067  02.08.2006

@<TRIPOS>MOLECULE
ASD08170151
  65   68    0    0    0
SMALL
NO_CHARGES


@<TRIPOS>ATOM
   1 N1            -0.0150     1.2583     0.0090 N.2     
   2 N2             0.0021    -0.0041     0.0020 N.2     
   3 C3             1.1271     1.8769     0.0014 C.2     
   4 S4             2.3826     0.7116    -0.0169 S.3     
   5 C5             1.1681    -0.5677    -0.0121 C.2     
   6 C6             1.4387    -2.0502    -0.0227 C.3     
   7 C7             1.5165    -2.5442    -1.4687 C.3     
   8 S8             1.8422    -4.3286    -1.4814 S.3     
   9 C9             1.8986    -4.7206    -3.2516 C.3     
  10 C10            2.1699    -6.2152    -3.4347 C.3     
  11 C11            2.2167    -6.5408    -4.9053 C.2     
  12 N12            3.2694    -6.5184    -5.6596 N.2     
  13 S13            0.8491    -7.0282    -5.9071 S.3     
  14 C14            1.9000    -7.1354    -7.2557 C.2     
  15 N15            3.1017    -6.8250    -6.8728 N.2     
  16 N16            1.5289    -7.4992    -8.5457 N.am    
  17 C17            2.4537    -7.5464    -9.5250 C.2     
  18 O18            3.6096    -7.2716    -9.2812 O.2     
  19 C19            2.0516    -7.9407   -10.9228 C.3     
  20 N20            1.3017     3.2566     0.0067 N.am    
  21 C21            0.2284     4.0717     0.0214 C.2     
  22 O22           -0.8897     3.6019     0.0299 O.2     
  23 C23            0.4176     5.5667     0.0272 C.3     
  24 C24            3.2622    -7.9149   -11.8199 C.ar    
  25 C25            3.2894    -7.0788   -12.9203 C.ar    
  26 C26            4.3478    -8.7234   -11.5391 C.ar    
  27 C27            5.4583    -8.6998   -12.3620 C.ar    
  28 C28            5.4830    -7.8681   -13.4659 C.ar    
  29 C29            4.3998    -7.0552   -13.7432 C.ar    
  30 C30           -0.9288     6.2434     0.0438 C.ar    
  31 C31           -1.2877     7.0939    -0.9852 C.ar    
  32 C32           -2.5227     7.7147    -0.9699 C.ar    
  33 C33           -3.3991     7.4846     0.0742 C.ar    
  34 C34           -3.0405     6.6334     1.1027 C.ar    
  35 C35           -1.8072     6.0093     1.0852 C.ar    
  36 C36            1.4602    -9.3516   -10.9046 C.3     
  37 C37            1.2094     5.9758     1.2708 C.3     
  38 H38            2.3843    -2.2506     0.4811 H       
  39 H39            0.6334    -2.5702     0.4961 H       
  40 H40            0.5709    -2.3438    -1.9724 H       
  41 H41            2.3218    -2.0242    -1.9874 H       
  42 H42            0.9434    -4.4658    -3.7108 H       
  43 H43            2.6943    -4.1461    -3.7258 H       
  44 H44            3.1250    -6.4700    -2.9755 H       
  45 H45            1.3741    -6.7896    -2.9605 H       
  46 H46            0.6045    -7.7190    -8.7407 H       
  47 H47            1.3064    -7.2392   -11.2980 H       
  48 H48            2.1959     3.6323    -0.0001 H       
  49 H49            0.9643     5.8672    -0.8667 H       
  50 H50            2.4429    -6.4442   -13.1374 H       
  51 H51            4.3285    -9.3731   -10.6767 H       
  52 H52            6.3067    -9.3308   -12.1423 H       
  53 H53            6.3507    -7.8494   -14.1086 H       
  54 H54            4.4191    -6.4054   -14.6057 H       
  55 H55           -0.6031     7.2737    -1.8008 H       
  56 H56           -2.8029     8.3797    -1.7734 H       
  57 H57           -4.3637     7.9701     0.0865 H       
  58 H58           -3.7251     6.4539     1.9185 H       
  59 H59           -1.5271     5.3443     1.8887 H       
  60 H60            2.2054   -10.0531   -10.5294 H       
  61 H61            0.5846    -9.3703   -10.2557 H       
  62 H62            1.1694    -9.6368   -11.9156 H       
  63 H63            0.6628     5.6753     2.1647 H       
  64 H64            2.1833     5.4864     1.2588 H       
  65 H65            1.3463     7.0572     1.2750 H       
@<TRIPOS>BOND
   1    1    2 1
   2    1    3 2
   3    2    5 2
   4    3    4 1
   5    3   20 1
   6    4    5 1
   7    5    6 1
   8    6    7 1
   9    6   38 1
  10    6   39 1
  11    7    8 1
  12    7   40 1
  13    7   41 1
  14    8    9 1
  15    9   10 1
  16    9   42 1
  17    9   43 1
  18   10   11 1
  19   10   44 1
  20   10   45 1
  21   11   12 2
  22   11   13 1
  23   12   15 1
  24   13   14 1
  25   14   15 2
  26   14   16 1
  27   16   17 am
  28   16   46 1
  29   17   18 2
  30   17   19 1
  31   19   24 1
  32   19   36 1
  33   19   47 1
  34   20   21 am
  35   20   48 1
  36   21   22 2
  37   21   23 1
  38   23   30 1
  39   23   37 1
  40   23   49 1
  41   24   25 ar
  42   24   26 ar
  43   25   29 ar
  44   25   50 1
  45   26   27 ar
  46   26   51 1
  47   27   28 ar
  48   27   52 1
  49   28   29 ar
  50   28   53 1
  51   29   54 1
  52   30   31 ar
  53   30   35 ar
  54   31   32 ar
  55   31   55 1
  56   32   33 ar
  57   32   56 1
  58   33   34 ar
  59   33   57 1
  60   34   35 ar
  61   34   58 1
  62   35   59 1
  63   36   60 1
  64   36   61 1
  65   36   62 1
  66   37   63 1
  67   37   64 1
  68   37   65 1

#	End of record

