#	Name: ASD03082240
#	Creating user name:	WinNT
#	Creation time:	15. 06. 2019 20:27

#	Modifying user name:	WinNT
#	Modification time:	15. 06. 2019 20:27

#	Program:	/corina/corina34_cracker 3.40 0067  02.08.2006

@<TRIPOS>MOLECULE
ASD03082240
  48   50    0    0    0
SMALL
NO_CHARGES


@<TRIPOS>ATOM
   1 N1            -0.0872     0.5770    -1.4648 N.pl3   
   2 N2            -0.0039    -0.5452    -0.6248 N.2     
   3 C3             1.2665    -0.7181    -0.3416 C.2     
   4 N4             1.9813     0.2277    -0.9537 N.2     
   5 C5             1.1787     1.0190    -1.6370 C.2     
   6 N6             1.7858    -1.7286     0.4699 N.pl3   
   7 C7             3.1617    -1.7922     0.7135 C.ar    
   8 C8             3.7794    -3.0228     0.8973 C.ar    
   9 C9             5.1379    -3.0833     1.1373 C.ar    
  10 C10            5.8845    -1.9182     1.1951 C.ar    
  11 C11            5.2709    -0.6906     1.0127 C.ar    
  12 C12            3.9132    -0.6257     0.7663 C.ar    
  13 C13            5.8086    -4.4179     1.3367 C.3     
  14 F14            4.8568    -5.4381     1.2346 F       
  15 F15            6.7912    -4.5972     0.3571 F       
  16 F16            6.4006    -4.4576     2.6037 F       
  17 N17            2.8381     3.0656    -4.2431 N.ar    
  18 C18            2.4717     2.0281    -3.5195 C.ar    
  19 C19            1.5905     2.1851    -2.4495 C.ar    
  20 C20            1.1024     3.4633    -2.1577 C.ar    
  21 C21            1.5180     4.5206    -2.9483 C.ar    
  22 C22            2.3941     4.2822    -3.9914 C.ar    
  23 C23           -1.3039     1.1510    -2.0447 C.3     
  24 F24            7.2134    -1.9796     1.4304 F       
  25 C25           -1.9456     2.0806    -1.0471 C.2     
  26 N26           -3.0851     2.7268    -1.3642 N.am    
  27 O27           -1.4368     2.2471     0.0411 O.2     
  28 C28           -3.7089     3.6304    -0.3944 C.3     
  29 C29           -3.6997     2.5256    -2.6787 C.3     
  30 C30            3.0085     0.6595    -3.8506 C.3     
  31 H31            1.1924    -2.3865     0.8648 H       
  32 H32            3.1975    -3.9316     0.8530 H       
  33 H33            5.8549     0.2168     1.0590 H       
  34 H34            3.4358     0.3319     0.6193 H       
  35 H35            0.4185     3.6209    -1.3368 H       
  36 H36            1.1616     5.5212    -2.7528 H       
  37 H37            2.7205     5.1054    -4.6098 H       
  38 H38           -1.0491     1.7065    -2.9472 H       
  39 H39           -1.9998     0.3503    -2.2951 H       
  40 H40           -3.1131     3.6515     0.5181 H       
  41 H41           -3.7636     4.6341    -0.8159 H       
  42 H42           -4.7142     3.2779    -0.1638 H       
  43 H43           -4.4010     1.6927    -2.6282 H       
  44 H44           -4.2310     3.4305    -2.9737 H       
  45 H45           -2.9245     2.3039    -3.4122 H       
  46 H46            3.8764     0.4487    -3.2258 H       
  47 H47            2.2371    -0.0880    -3.6651 H       
  48 H48            3.3002     0.6277    -4.9004 H       
@<TRIPOS>BOND
   1    1    2 1
   2    1    5 1
   3    1   23 1
   4    2    3 2
   5    3    4 1
   6    3    6 1
   7    4    5 2
   8    5   19 1
   9    6    7 1
  10    6   31 1
  11    7    8 ar
  12    7   12 ar
  13    8    9 ar
  14    8   32 1
  15    9   10 ar
  16    9   13 1
  17   10   11 ar
  18   10   24 1
  19   11   12 ar
  20   11   33 1
  21   12   34 1
  22   13   14 1
  23   13   15 1
  24   13   16 1
  25   17   18 ar
  26   17   22 ar
  27   18   19 ar
  28   18   30 1
  29   19   20 ar
  30   20   21 ar
  31   20   35 1
  32   21   22 ar
  33   21   36 1
  34   22   37 1
  35   23   25 1
  36   23   38 1
  37   23   39 1
  38   25   26 am
  39   25   27 2
  40   26   28 1
  41   26   29 1
  42   28   40 1
  43   28   41 1
  44   28   42 1
  45   29   43 1
  46   29   44 1
  47   29   45 1
  48   30   46 1
  49   30   47 1
  50   30   48 1

#	End of record

