#	Name: ASD01816596
#	Creating user name:	WinNT
#	Creation time:	15. 06. 2019 19:35

#	Modifying user name:	WinNT
#	Modification time:	15. 06. 2019 19:35

#	Program:	/corina/corina34_cracker 3.40 0067  02.08.2006

@<TRIPOS>MOLECULE
ASD01816596
  70   76    0    0    0
SMALL
NO_CHARGES


@<TRIPOS>ATOM
   1 C1            -0.0167     1.3807     0.0096 C.ar    
   2 C2             0.0021    -0.0041     0.0020 C.ar    
   3 C3            -1.1754    -0.7253     0.0094 C.ar    
   4 C4            -2.3995    -0.0670     0.0241 C.ar    
   5 C5            -2.4232     1.3374     0.0319 C.ar    
   6 C6            -1.2280     2.0603     0.0306 C.ar    
   7 N7            -3.5816    -0.7892     0.0306 N.pl3   
   8 C8            -4.7923    -0.2091     0.0448 C.2     
   9 C9            -4.9388     1.1557     0.0539 C.2     
  10 C10           -3.7325     2.0146     0.0476 C.2     
  11 C11           -6.0660     2.0828     0.0702 C.2     
  12 N12           -5.5330     3.3236     0.0730 N.am    
  13 N13           -4.1377     3.2525     0.0592 N.2     
  14 C14           -6.2734     4.5124     0.0865 C.ar    
  15 O15           -7.2518     1.7946     0.0794 O.2     
  16 F16            1.1444     2.0713     0.0023 F       
  17 C17           -6.7196     5.0405     1.2901 C.ar    
  18 C18           -7.4494     6.2137     1.3004 C.ar    
  19 C19           -7.7364     6.8625     0.1138 C.ar    
  20 C20           -7.2941     6.3405    -1.0883 C.ar    
  21 C21           -6.5584     5.1700    -1.1059 C.ar    
  22 N22           -1.2507     3.4562     0.0388 N.3     
  23 C23           -0.5683     3.9868     1.2265 C.3     
  24 C24           -0.6131     5.4930     1.2006 C.ar    
  25 C25           -1.6685     6.1621     1.7925 C.ar    
  26 C26           -1.7124     7.5424     1.7704 C.ar    
  27 C27           -0.6954     8.2581     1.1531 C.ar    
  28 C28            0.3630     7.5834     0.5596 C.ar    
  29 C29            0.4042     6.2031     0.5899 C.ar    
  30 N30           -0.7373     9.6591     1.1286 N.pl3   
  31 N31           -1.7399    10.4638     1.6850 N.2     
  32 C32            0.1859    10.4732     0.5687 C.2     
  33 C33           -0.2209    11.7496     0.7596 C.2     
  34 C34           -1.4306    11.7157     1.4619 C.2     
  35 F35           -6.1264     4.6599    -2.2800 F       
  36 C36           -3.5072    -2.2522     0.0210 C.3     
  37 C37           -3.4681    -2.7703     1.4601 C.3     
  38 C38           -3.5163    -4.3013     1.4544 C.3     
  39 C39           -3.3981    -4.8103     2.8943 C.3     
  40 C40           -2.1054    -4.2719     3.5131 C.3     
  41 O41           -2.1115    -2.8439     3.4587 O.3     
  42 C42           -2.1727    -2.3108     2.1342 C.3     
  43 H43            0.9478    -0.5254    -0.0102 H       
  44 H44           -1.1450    -1.8048     0.0033 H       
  45 H45           -5.6741    -0.8327     0.0487 H       
  46 H46           -6.4968     4.5345     2.2179 H       
  47 H47           -7.7965     6.6244     2.2370 H       
  48 H48           -8.3077     7.7789     0.1255 H       
  49 H49           -7.5201     6.8498    -2.0135 H       
  50 H50           -0.8469     3.8294    -0.8072 H       
  51 H51           -1.0675     3.6239     2.1249 H       
  52 H52            0.4697     3.6542     1.2281 H       
  53 H53           -2.4595     5.6049     2.2723 H       
  54 H54           -2.5371     8.0645     2.2326 H       
  55 H55            1.1554     8.1374     0.0783 H       
  56 H56            1.2274     5.6777     0.1287 H       
  57 H57            1.0865    10.1609     0.0610 H       
  58 H58            0.2978    12.6378     0.4303 H       
  59 H59           -2.0098    12.5748     1.7668 H       
  60 H60           -4.3823    -2.6572    -0.4873 H       
  61 H61           -2.6047    -2.5668    -0.5031 H       
  62 H62           -4.3244    -2.3810     2.0108 H       
  63 H63           -4.4616    -4.6348     1.0262 H       
  64 H64           -2.6885    -4.6900     0.8612 H       
  65 H65           -4.2524    -4.4621     3.4750 H       
  66 H66           -3.3759    -5.9000     2.8948 H       
  67 H67           -2.0372    -4.5958     4.5516 H       
  68 H68           -1.2496    -4.6533     2.9562 H       
  69 H69           -1.3177    -2.6665     1.5593 H       
  70 H70           -2.1530    -1.2219     2.1794 H       
@<TRIPOS>BOND
   1    1    2 ar
   2    1   16 1
   3    1    6 ar
   4    2    3 ar
   5    2   43 1
   6    3    4 ar
   7    3   44 1
   8    4    5 ar
   9    4    7 1
  10    5    6 ar
  11    5   10 1
  12    6   22 1
  13    7    8 1
  14    7   36 1
  15    8    9 2
  16    8   45 1
  17    9   10 1
  18    9   11 1
  19   10   13 2
  20   11   12 am
  21   11   15 2
  22   12   13 1
  23   12   14 1
  24   14   17 ar
  25   14   21 ar
  26   17   18 ar
  27   17   46 1
  28   18   19 ar
  29   18   47 1
  30   19   20 ar
  31   19   48 1
  32   20   21 ar
  33   20   49 1
  34   21   35 1
  35   22   23 1
  36   22   50 1
  37   23   24 1
  38   23   51 1
  39   23   52 1
  40   24   25 ar
  41   24   29 ar
  42   25   26 ar
  43   25   53 1
  44   26   27 ar
  45   26   54 1
  46   27   28 ar
  47   27   30 1
  48   28   29 ar
  49   28   55 1
  50   29   56 1
  51   30   31 1
  52   30   32 1
  53   31   34 2
  54   32   33 2
  55   32   57 1
  56   33   34 1
  57   33   58 1
  58   34   59 1
  59   36   37 1
  60   36   60 1
  61   36   61 1
  62   37   38 1
  63   37   42 1
  64   37   62 1
  65   38   39 1
  66   38   63 1
  67   38   64 1
  68   39   40 1
  69   39   65 1
  70   39   66 1
  71   40   41 1
  72   40   67 1
  73   40   68 1
  74   41   42 1
  75   42   69 1
  76   42   70 1

#	End of record

