#	Name: ASD00069118
#	Creating user name:	WinNT
#	Creation time:	15. 06. 2019 18:29

#	Modifying user name:	WinNT
#	Modification time:	15. 06. 2019 18:29

#	Program:	/corina/corina34_cracker 3.40 0067  02.08.2006

@<TRIPOS>MOLECULE
ASD00069118
  59   63    0    0    0
SMALL
NO_CHARGES


@<TRIPOS>ATOM
   1 C1             0.0251     1.4152     0.0477 C.2     
   2 N2             0.0714     0.1347    -0.2521 N.2     
   3 C3             1.3455    -0.2721    -0.2335 C.2     
   4 C4             2.1276     0.7996     0.0917 C.2     
   5 N5             1.2999     1.8562     0.2676 N.pl3   
   6 C6            -1.1954     2.2370     0.1267 C.2     
   7 O7            -1.1169     3.4164     0.4139 O.2     
   8 N8            -2.3986     1.6818    -0.1192 N.am    
   9 N9             1.8770    -3.7653    -1.0764 N.pl3   
  10 N10            3.1768    -3.3703    -0.7376 N.2     
  11 C11            3.1526    -2.1072    -0.4026 C.2     
  12 C12            1.8261    -1.6492    -0.5170 C.2     
  13 C13            1.0627    -2.6986    -0.9356 C.2     
  14 C14            1.4722    -5.1035    -1.5141 C.3     
  15 C15            3.4944    -6.1900    -2.5246 C.ar    
  16 C16            2.3013    -5.5153    -2.7032 C.ar    
  17 C17            1.8768    -5.2226    -3.9900 C.ar    
  18 C18            2.6719    -5.6213    -5.0540 C.ar    
  19 C19            3.8524    -6.2923    -4.7980 C.ar    
  20 N20            4.2252    -6.5535    -3.5602 N.ar    
  21 C21           -3.5669     2.4311     0.0680 C.ar    
  22 C22           -4.7593     2.0282    -0.5318 C.ar    
  23 C23           -5.9140     2.7754    -0.3416 C.ar    
  24 C24           -5.8781     3.9163     0.4415 C.ar    
  25 C25           -4.6946     4.3147     1.0352 C.ar    
  26 C26           -3.5420     3.5730     0.8554 C.ar    
  27 F27           -7.0719     2.3895    -0.9210 F       
  28 N28           -4.7921     0.8735    -1.3240 N.3     
  29 C29           -5.1132     1.2013    -2.7190 C.3     
  30 C30           -4.9976    -0.0586    -3.5800 C.3     
  31 C31           -5.9632    -1.1227    -3.0510 C.3     
  32 C32           -5.6383    -1.4108    -1.5827 C.3     
  33 C33           -5.7352    -0.1117    -0.7795 C.3     
  34 N34           -5.3393     0.2653    -4.9715 N.3     
  35 H35            3.2031     0.8033     0.1901 H       
  36 H36            1.5628     2.7591     0.5055 H       
  37 H37           -2.4555     0.7633    -0.4258 H       
  38 H38            4.0022    -1.5174    -0.0917 H       
  39 H39           -0.0011    -2.6794    -1.1211 H       
  40 H40            1.6250    -5.8134    -0.7012 H       
  41 H41            0.4184    -5.0914    -1.7925 H       
  42 H42            3.8343    -6.4179    -1.5251 H       
  43 H43            0.9488    -4.6969    -4.1599 H       
  44 H44            2.3720    -5.4103    -6.0698 H       
  45 H45            4.4772    -6.6062    -5.6211 H       
  46 H46           -6.7767     4.4969     0.5889 H       
  47 H47           -4.6716     5.2058     1.6450 H       
  48 H48           -2.6207     3.8849     1.3248 H       
  49 H49           -6.1305     1.5883    -2.7762 H       
  50 H50           -4.4166     1.9559    -3.0842 H       
  51 H51           -3.9770    -0.4383    -3.5342 H       
  52 H52           -6.9872    -0.7584    -3.1328 H       
  53 H53           -5.8531    -2.0368    -3.6345 H       
  54 H54           -6.3495    -2.1364    -1.1881 H       
  55 H55           -4.6277    -1.8118    -1.5055 H       
  56 H56           -5.4905    -0.3106     0.2639 H       
  57 H57           -6.7497     0.2815    -0.8458 H       
  58 H58           -5.2704    -0.5512    -5.5603 H       
  59 H59           -6.2581     0.6779    -5.0316 H       
@<TRIPOS>BOND
   1    1    2 2
   2    1    5 1
   3    1    6 1
   4    2    3 1
   5    3    4 2
   6    3   12 1
   7    4    5 1
   8    4   35 1
   9    5   36 1
  10    6    7 2
  11    6    8 am
  12    8   21 1
  13    8   37 1
  14    9   10 1
  15    9   13 1
  16    9   14 1
  17   10   11 2
  18   11   12 1
  19   11   38 1
  20   12   13 2
  21   13   39 1
  22   14   16 1
  23   14   40 1
  24   14   41 1
  25   15   16 ar
  26   15   20 ar
  27   15   42 1
  28   16   17 ar
  29   17   18 ar
  30   17   43 1
  31   18   19 ar
  32   18   44 1
  33   19   20 ar
  34   19   45 1
  35   21   22 ar
  36   21   26 ar
  37   22   23 ar
  38   22   28 1
  39   23   24 ar
  40   23   27 1
  41   24   25 ar
  42   24   46 1
  43   25   26 ar
  44   25   47 1
  45   26   48 1
  46   28   29 1
  47   28   33 1
  48   29   30 1
  49   29   49 1
  50   29   50 1
  51   30   31 1
  52   30   34 1
  53   30   51 1
  54   31   32 1
  55   31   52 1
  56   31   53 1
  57   32   33 1
  58   32   54 1
  59   32   55 1
  60   33   56 1
  61   33   57 1
  62   34   58 1
  63   34   59 1

#	End of record

