#	Name: ASD01810839
#	Creating user name:	WinNT
#	Creation time:	15. 06. 2019 19:25

#	Modifying user name:	WinNT
#	Modification time:	15. 06. 2019 19:25

#	Program:	/corina/corina34_cracker 3.40 0067  02.08.2006

@<TRIPOS>MOLECULE
ASD01810839
  74   80    0    0    0
SMALL
NO_CHARGES


@<TRIPOS>ATOM
   1 C1            -0.0178     1.4608     0.0101 C.3     
   2 C2            -1.0644    -4.2858    -1.9275 C.ar    
   3 C3            -1.1161    -2.9333    -1.9768 C.ar    
   4 C4            -0.5355    -2.1451    -0.9709 C.ar    
   5 C5             0.1185    -2.7475     0.1193 C.ar    
   6 C6             0.1784    -4.2050     0.1782 C.ar    
   7 C7             0.8125    -4.8707     1.2321 C.ar    
   8 C8             0.8454    -6.2347     1.2472 C.ar    
   9 C9             0.2553    -6.9729     0.2263 C.ar    
  10 C10           -0.3705    -6.3547    -0.8149 C.ar    
  11 C11           -0.4242    -4.9532    -0.8623 C.ar    
  12 C12           -1.7072    -5.0918    -3.0268 C.3     
  13 C13           -4.1786    -4.6610    -2.9063 C.ar    
  14 C14           -3.1015    -5.4851    -2.6118 C.ar    
  15 C15           -3.3198    -6.6705    -1.9345 C.ar    
  16 N16           -4.5340    -7.0258    -1.5666 N.ar    
  17 C17           -5.4431    -5.0589    -2.5085 C.ar    
  18 C18           -5.5904    -6.2664    -1.8288 C.ar    
  19 C19           -0.5859    -0.6781    -1.0136 C.2     
  20 N20            0.0021    -0.0041     0.0020 N.am    
  21 C21            0.6101    -0.6745     1.0123 C.2     
  22 N22            0.6668    -1.9731     1.0706 N.2     
  23 O23           -1.1354    -0.0906    -1.9279 O.2     
  24 C24            1.4176     1.9904    -0.0008 C.3     
  25 C25            1.3968     3.5202     0.0076 C.3     
  26 C26            0.6807     4.0136     1.2664 C.3     
  27 C27           -0.7547     3.4840     1.2773 C.3     
  28 C28           -0.7339     1.9542     1.2689 C.3     
  29 O29            2.0865     1.5295    -1.1765 O.3     
  30 C30           -6.9382    -6.7067    -1.3955 C.ar    
  31 C31           -8.0679    -5.9754    -1.7519 C.ar    
  32 N32           -9.2680    -6.3627    -1.3692 N.ar    
  33 C33           -9.4486    -7.4522    -0.6377 C.ar    
  34 C34           -8.3665    -8.2350    -0.2430 C.ar    
  35 C35           -7.0929    -7.8670    -0.6270 C.ar    
  36 N36          -10.7332    -7.8181    -0.2592 N.3     
  37 C37          -11.7262    -6.8644    -0.7747 C.3     
  38 C38          -13.1296    -7.3370    -0.3860 C.3     
  39 O39          -13.2026    -7.4794     1.0351 O.3     
  40 C40          -12.2497    -8.4015     1.5711 C.3     
  41 C41          -10.8374    -7.9397     1.2022 C.3     
  42 H42           -0.5450     1.8219    -0.8730 H       
  43 H43           -1.6133    -2.4520    -2.8059 H       
  44 H44            1.2743    -4.3079     2.0299 H       
  45 H45            1.3357    -6.7475     2.0615 H       
  46 H46            0.2940    -8.0517     0.2591 H       
  47 H47           -0.8241    -6.9414    -1.6001 H       
  48 H48           -1.7541    -4.4931    -3.9364 H       
  49 H49           -1.1167    -5.9890    -3.2123 H       
  50 H50           -4.0328    -3.7281    -3.4305 H       
  51 H51           -2.4837    -7.3141    -1.7042 H       
  52 H52           -6.3036    -4.4420    -2.7216 H       
  53 H53            1.0691    -0.1035     1.8058 H       
  54 H54            1.9448     1.6293     0.8823 H       
  55 H55            2.4194     3.8975    -0.0001 H       
  56 H56            0.8697     3.8813    -0.8754 H       
  57 H57            1.2079     3.6525     2.1495 H       
  58 H58            0.6659     5.1035     1.2724 H       
  59 H59           -1.2649     3.8356     2.1741 H       
  60 H60           -1.2819     3.8451     0.3942 H       
  61 H61           -1.7565     1.5769     1.2766 H       
  62 H62           -0.2067     1.5931     2.1519 H       
  63 H63            3.0034     1.8277    -1.2498 H       
  64 H64           -7.9596    -5.0813    -2.3479 H       
  65 H65           -8.5225    -9.1218     0.3534 H       
  66 H66           -6.2356    -8.4556    -0.3355 H       
  67 H67          -11.5419    -5.8795    -0.3455 H       
  68 H68          -11.6484    -6.8093    -1.8605 H       
  69 H69          -13.8651    -6.6037    -0.7166 H       
  70 H70          -13.3342    -8.2975    -0.8591 H       
  71 H71          -12.3490    -8.4381     2.6559 H       
  72 H72          -12.4288    -9.3929     1.1549 H       
  73 H73          -10.1109    -8.6695     1.5594 H       
  74 H74          -10.6390    -6.9720     1.6630 H       
@<TRIPOS>BOND
   1    1   20 1
   2    1   24 1
   3    1   28 1
   4    1   42 1
   5    2    3 ar
   6    2   11 ar
   7    2   12 1
   8    3    4 ar
   9    3   43 1
  10    4    5 ar
  11    4   19 1
  12    5    6 ar
  13    5   22 1
  14    6    7 ar
  15    6   11 ar
  16    7    8 ar
  17    7   44 1
  18    8    9 ar
  19    8   45 1
  20    9   10 ar
  21    9   46 1
  22   10   11 ar
  23   10   47 1
  24   12   14 1
  25   12   48 1
  26   12   49 1
  27   13   14 ar
  28   13   17 ar
  29   13   50 1
  30   14   15 ar
  31   15   16 ar
  32   15   51 1
  33   16   18 ar
  34   17   18 ar
  35   17   52 1
  36   18   30 1
  37   19   20 am
  38   19   23 2
  39   20   21 1
  40   21   22 2
  41   21   53 1
  42   24   25 1
  43   24   29 1
  44   24   54 1
  45   25   26 1
  46   25   55 1
  47   25   56 1
  48   26   27 1
  49   26   57 1
  50   26   58 1
  51   27   28 1
  52   27   59 1
  53   27   60 1
  54   28   61 1
  55   28   62 1
  56   29   63 1
  57   30   31 ar
  58   30   35 ar
  59   31   32 ar
  60   31   64 1
  61   32   33 ar
  62   33   34 ar
  63   33   36 1
  64   34   35 ar
  65   34   65 1
  66   35   66 1
  67   36   37 1
  68   36   41 1
  69   37   38 1
  70   37   67 1
  71   37   68 1
  72   38   39 1
  73   38   69 1
  74   38   70 1
  75   39   40 1
  76   40   41 1
  77   40   71 1
  78   40   72 1
  79   41   73 1
  80   41   74 1

#	End of record

