#	Name: ASD03330670
#	Creating user name:	WinNT
#	Creation time:	15. 06. 2019 20:37

#	Modifying user name:	WinNT
#	Modification time:	15. 06. 2019 20:37

#	Program:	/corina/corina34_cracker 3.40 0067  02.08.2006

@<TRIPOS>MOLECULE
ASD03330670
  63   65    0    0    0
SMALL
NO_CHARGES


@<TRIPOS>ATOM
   1 C1            -0.3201     2.0849    -1.2110 C.2     
   2 N2            -0.5069     0.7983    -1.5886 N.pl3   
   3 C3             1.0149     2.2513    -1.0070 C.2     
   4 N4             1.6187     1.0652    -1.2814 N.2     
   5 C5             0.7099     0.2007    -1.6340 C.2     
   6 C6             0.9686    -1.2306    -2.0285 C.3     
   7 C7             1.6828     3.4895    -0.5696 C.2     
   8 O8             1.0269     4.4911    -0.3553 O.2     
   9 C9             3.6846     4.7436     0.0279 C.3     
  10 N10            3.0205     3.5123    -0.4070 N.am    
  11 C11            3.6447     4.8326     1.5548 C.3     
  12 C12            4.2472     3.5610     2.1557 C.3     
  13 C13            4.4527     6.0471     2.0162 C.3     
  14 C14            2.1943     4.9786     2.0194 C.3     
  15 C15            5.1179     4.7325    -0.4373 C.2     
  16 N16            5.7755     5.8944    -0.6220 N.am    
  17 O17            5.6798     3.6780    -0.6456 O.2     
  18 C18            7.1293     5.8889    -1.1819 C.3     
  19 C19           -1.8032     0.1779    -1.8779 C.3     
  20 C20           -2.6098     1.1019    -2.7952 C.3     
  21 C21           -3.4034     2.0979    -1.9554 C.3     
  22 N22           -2.6696     2.4642    -0.7421 N.3     
  23 C23           -1.3982     3.1273    -1.0677 C.3     
  24 C24           -3.4924     3.3058     0.1368 C.3     
  25 C25            0.9101    -2.1075    -0.8043 C.ar    
  26 C26           -0.2898    -2.6739    -0.4165 C.ar    
  27 C27           -0.3435    -3.4783     0.7064 C.ar    
  28 C28            0.8028    -3.7166     1.4413 C.ar    
  29 C29            2.0029    -3.1510     1.0530 C.ar    
  30 C30            2.0574    -2.3501    -0.0724 C.ar    
  31 H31            0.2113    -1.5531    -2.7430 H       
  32 H32            1.9554    -1.3090    -2.4848 H       
  33 H33            3.1704     5.6043    -0.3998 H       
  34 H34            3.5435     2.7135    -0.5780 H       
  35 H35            5.2805     3.4570     1.8247 H       
  36 H36            4.2187     3.6244     3.2435 H       
  37 H37            3.6715     2.6958     1.8270 H       
  38 H38            4.0017     6.9561     1.6181 H       
  39 H39            4.4550     6.0896     3.1053 H       
  40 H40            5.4771     5.9610     1.6538 H       
  41 H41            1.6186     4.1133     1.6907 H       
  42 H42            2.1658     5.0420     3.1072 H       
  43 H43            1.7651     5.8844     1.5913 H       
  44 H44            5.3524     6.7342    -0.3842 H       
  45 H45            7.4957     6.9128    -1.2566 H       
  46 H46            7.7888     5.3134    -0.5323 H       
  47 H47            7.1106     5.4365    -2.1734 H       
  48 H48           -1.6460    -0.7802    -2.3732 H       
  49 H49           -2.3484     0.0225    -0.9469 H       
  50 H50           -1.9299     1.6433    -3.4531 H       
  51 H51           -3.2968     0.5063    -3.3963 H       
  52 H52           -3.5898     2.9951    -2.5455 H       
  53 H53           -4.3570     1.6502    -1.6754 H       
  54 H54           -1.1326     3.8186    -0.2679 H       
  55 H55           -1.5023     3.6750    -2.0044 H       
  56 H56           -4.4241     2.7889     0.3668 H       
  57 H57           -2.9499     3.5052     1.0610 H       
  58 H58           -3.7137     4.2477    -0.3650 H       
  59 H59           -1.1854    -2.4877    -0.9907 H       
  60 H60           -1.2811    -3.9202     1.0098 H       
  61 H61            0.7607    -4.3445     2.3190 H       
  62 H62            2.8984    -3.3369     1.6274 H       
  63 H63            2.9950    -1.9082    -0.3758 H       
@<TRIPOS>BOND
   1    1    2 1
   2    1    3 2
   3    1   23 1
   4    2   19 1
   5    2    5 1
   6    3    4 1
   7    3    7 1
   8    4    5 2
   9    5    6 1
  10    6   25 1
  11    6   31 1
  12    6   32 1
  13    7    8 2
  14    7   10 am
  15    9   10 1
  16    9   11 1
  17    9   15 1
  18    9   33 1
  19   10   34 1
  20   11   12 1
  21   11   13 1
  22   11   14 1
  23   12   35 1
  24   12   36 1
  25   12   37 1
  26   13   38 1
  27   13   39 1
  28   13   40 1
  29   14   41 1
  30   14   42 1
  31   14   43 1
  32   15   16 am
  33   15   17 2
  34   16   18 1
  35   16   44 1
  36   18   45 1
  37   18   46 1
  38   18   47 1
  39   19   20 1
  40   19   48 1
  41   19   49 1
  42   20   21 1
  43   20   50 1
  44   20   51 1
  45   21   22 1
  46   21   52 1
  47   21   53 1
  48   22   23 1
  49   22   24 1
  50   23   54 1
  51   23   55 1
  52   24   56 1
  53   24   57 1
  54   24   58 1
  55   25   26 ar
  56   25   30 ar
  57   26   27 ar
  58   26   59 1
  59   27   28 ar
  60   27   60 1
  61   28   29 ar
  62   28   61 1
  63   29   30 ar
  64   29   62 1
  65   30   63 1

#	End of record

