#	Name: ASD01150244
#	Creating user name:	WinNT
#	Creation time:	15. 06. 2019 19:03

#	Modifying user name:	WinNT
#	Modification time:	15. 06. 2019 19:03

#	Program:	/corina/corina34_cracker 3.40 0067  02.08.2006

@<TRIPOS>MOLECULE
ASD01150244
  71   75    0    0    0
SMALL
NO_CHARGES


@<TRIPOS>ATOM
   1 C1             0.2363     0.9731     0.3489 C.ar    
   2 C2             0.1407    -0.4197     0.4447 C.ar    
   3 C3            -1.0698    -1.0389     0.4507 C.ar    
   4 C4            -2.2491    -0.2782     0.3598 C.ar    
   5 C5            -2.1574     1.1317     0.2627 C.ar    
   6 C6            -0.9011     1.7489     0.2640 C.ar    
   7 N7            -3.4485    -0.8702     0.3637 N.ar    
   8 C8            -4.5604    -0.1800     0.2795 C.ar    
   9 C9            -4.5587     1.2063     0.1808 C.ar    
  10 C10           -3.3514     1.8921     0.1714 C.ar    
  11 N11            1.4926     1.5826     0.3450 N.3     
  12 C12           -3.3115     3.3686     0.0674 C.ar    
  13 C13           -5.8597     1.9609     0.0856 C.3     
  14 C14           -6.4352     1.8095    -1.3239 C.3     
  15 O15           -6.7865     1.4345     1.0376 O.3     
  16 C16           -5.8780    -0.9113     0.2896 C.3     
  17 C17           -2.8187     4.1317     1.1262 C.ar    
  18 C18           -2.7832     5.5066     1.0243 C.ar    
  19 C19           -3.2364     6.1304    -0.1273 C.ar    
  20 C20           -3.7269     5.3767    -1.1820 C.ar    
  21 C21           -3.7612     4.0009    -1.0920 C.ar    
  22 F22           -3.2004     7.4776    -0.2221 F       
  23 C23            2.5630     0.5827     0.4494 C.3     
  24 C24            3.9217     1.2701     0.2960 C.3     
  25 C25            4.0788     2.3295     1.3903 C.3     
  26 C26            2.9249     3.3309     1.2897 C.3     
  27 C27            1.5951     2.5839     1.4143 C.3     
  28 C28           -7.7725     2.2668     1.4640 C.ar    
  29 C29           -7.9182     3.5219     0.8916 C.ar    
  30 C30           -8.9215     4.3662     1.3269 C.ar    
  31 C31           -9.7798     3.9611     2.3321 C.ar    
  32 C32           -9.6364     2.7105     2.9047 C.ar    
  33 C33           -8.6389     1.8603     2.4688 C.ar    
  34 C34           -8.4835     0.4974     3.0928 C.3     
  35 C35           -8.2099     0.6504     4.5903 C.3     
  36 C36           -9.7691    -0.3065     2.8887 C.3     
  37 H37            1.0414    -1.0114     0.5145 H       
  38 H38           -1.1255    -2.1149     0.5250 H       
  39 H39           -0.8226     2.8235     0.1903 H       
  40 H40           -5.6839     3.0161     0.2949 H       
  41 H41           -7.4204     2.2739    -1.3660 H       
  42 H42           -5.7734     2.2957    -2.0407 H       
  43 H43           -6.5217     0.7510    -1.5693 H       
  44 H44           -6.1914    -1.0811     1.3196 H       
  45 H45           -6.6297    -0.3126    -0.2249 H       
  46 H46           -5.7659    -1.8689    -0.2188 H       
  47 H47           -2.4659     3.6466     2.0244 H       
  48 H48           -2.4018     6.0982     1.8435 H       
  49 H49           -4.0792     5.8674    -2.0772 H       
  50 H50           -4.1433     3.4144    -1.9145 H       
  51 H51            2.5106     0.0950     1.4228 H       
  52 H52            2.4421    -0.1623    -0.3370 H       
  53 H53            4.7165     0.5300     0.3891 H       
  54 H54            3.9801     1.7465    -0.6827 H       
  55 H55            4.0594     1.8485     2.3683 H       
  56 H56            5.0266     2.8514     1.2588 H       
  57 H57            3.0075     4.0633     2.0928 H       
  58 H58            2.9676     3.8397     0.3266 H       
  59 H59            0.7711     3.2923     1.3287 H       
  60 H60            1.5473     2.0867     2.3831 H       
  61 H61           -7.2477     3.8390     0.1066 H       
  62 H62           -9.0351     5.3436     0.8818 H       
  63 H63          -10.5634     4.6225     2.6710 H       
  64 H64          -10.3079     2.3964     3.6901 H       
  65 H65           -7.6500    -0.0245     2.6226 H       
  66 H66           -9.0434     1.1723     5.0605 H       
  67 H67           -8.0975    -0.3354     5.0417 H       
  68 H68           -7.2940     1.2231     4.7357 H       
  69 H69           -9.9640    -0.4155     1.8218 H       
  70 H70           -9.6567    -1.2923     3.3400 H       
  71 H71          -10.6026     0.2155     3.3588 H       
@<TRIPOS>BOND
   1    1    2 ar
   2    1   11 1
   3    1    6 ar
   4    2    3 ar
   5    2   37 1
   6    3    4 ar
   7    3   38 1
   8    4    5 ar
   9    4    7 ar
  10    5    6 ar
  11    5   10 ar
  12    6   39 1
  13    7    8 ar
  14    8    9 ar
  15    8   16 1
  16    9   10 ar
  17    9   13 1
  18   10   12 1
  19   11   23 1
  20   11   27 1
  21   12   17 ar
  22   12   21 ar
  23   13   14 1
  24   13   15 1
  25   13   40 1
  26   14   41 1
  27   14   42 1
  28   14   43 1
  29   15   28 1
  30   16   44 1
  31   16   45 1
  32   16   46 1
  33   17   18 ar
  34   17   47 1
  35   18   19 ar
  36   18   48 1
  37   19   20 ar
  38   19   22 1
  39   20   21 ar
  40   20   49 1
  41   21   50 1
  42   23   24 1
  43   23   51 1
  44   23   52 1
  45   24   25 1
  46   24   53 1
  47   24   54 1
  48   25   26 1
  49   25   55 1
  50   25   56 1
  51   26   27 1
  52   26   57 1
  53   26   58 1
  54   27   59 1
  55   27   60 1
  56   28   29 ar
  57   28   33 ar
  58   29   30 ar
  59   29   61 1
  60   30   31 ar
  61   30   62 1
  62   31   32 ar
  63   31   63 1
  64   32   33 ar
  65   32   64 1
  66   33   34 1
  67   34   35 1
  68   34   36 1
  69   34   65 1
  70   35   66 1
  71   35   67 1
  72   35   68 1
  73   36   69 1
  74   36   70 1
  75   36   71 1

#	End of record

