#	Name: ASD08170084
#	Creating user name:	WinNT
#	Creation time:	15. 06. 2019 21:17

#	Modifying user name:	WinNT
#	Modification time:	15. 06. 2019 21:17

#	Program:	/corina/corina34_cracker 3.40 0067  02.08.2006

@<TRIPOS>MOLECULE
ASD08170084
  71   76    0    0    0
SMALL
NO_CHARGES


@<TRIPOS>ATOM
   1 N1            -0.0150     1.2583     0.0090 N.2     
   2 N2             0.0021    -0.0041     0.0020 N.2     
   3 C3             1.1271     1.8769     0.0014 C.2     
   4 S4             2.3826     0.7116    -0.0169 S.3     
   5 C5             1.1681    -0.5677    -0.0121 C.2     
   6 C6             1.4387    -2.0502    -0.0217 C.3     
   7 C7             1.5173    -2.5450    -1.4674 C.3     
   8 C8             2.1718    -6.2170    -3.4310 C.3     
   9 C9             2.2195    -6.5434    -4.9015 C.2     
  10 N10            3.2727    -6.5215    -5.6551 N.2     
  11 S11            0.8525    -7.0314    -5.9038 S.3     
  12 C12            1.9042    -7.1394    -7.2517 C.2     
  13 N13            3.1057    -6.8287    -6.8682 N.2     
  14 N14            1.5340    -7.5046    -8.5415 N.am    
  15 C15            2.4593    -7.5523    -9.5203 C.2     
  16 O16            3.6149    -7.2766    -9.2761 O.2     
  17 C17            2.0581    -7.9480   -10.9179 C.3     
  18 N18            1.3017     3.2566     0.0071 N.am    
  19 C19            0.2284     4.0717     0.0222 C.2     
  20 C20            0.4176     5.5667     0.0285 C.3     
  21 O21           -0.8897     3.6019     0.0309 O.2     
  22 C22            1.9004    -4.7224    -3.2489 C.3     
  23 C23            1.4263    -6.7480   -11.6262 C.3     
  24 C24           -0.9493     6.2537     0.0458 C.3     
  25 C25           -0.7988     7.7571     0.1759 C.ar    
  26 C26            0.8765    -7.1467   -12.9821 C.ar    
  27 N27            3.2460    -8.3864   -11.6627 N.3     
  28 S28            1.8430    -4.3295    -1.4789 S.3     
  29 C29           -1.0058     8.2974    -1.0866 C.ar    
  30 O30           -1.2552     7.3241    -2.0051 O.3     
  31 C31           -1.6525     6.1209    -1.3258 C.3     
  32 C32           -0.5175     8.5686     1.2527 C.ar    
  33 C33           -0.4444     9.9399     1.0845 C.ar    
  34 C34           -0.6546    10.4902    -0.1667 C.ar    
  35 C35           -0.9332     9.6792    -1.2470 C.ar    
  36 C36            0.1491    -6.2802   -10.8889 C.3     
  37 O37           -0.7146    -5.8846   -11.9679 O.3     
  38 C38           -0.3940    -6.5950   -13.0841 C.ar    
  39 C39           -1.1347    -6.8219   -14.2417 C.ar    
  40 C40           -0.6060    -7.5765   -15.2681 C.ar    
  41 C41            0.6634    -8.1139   -15.1580 C.ar    
  42 C42            1.4042    -7.8964   -14.0100 C.ar    
  43 H43            2.3840    -2.2503     0.4827 H       
  44 H44            0.6331    -2.5700     0.4969 H       
  45 H45            0.5720    -2.3449    -1.9718 H       
  46 H46            2.3230    -2.0252    -1.9860 H       
  47 H47            1.3758    -6.7912    -2.9570 H       
  48 H48            3.1267    -6.4716    -2.9712 H       
  49 H49            0.6097    -7.7250    -8.7368 H       
  50 H50            1.3367    -8.7638   -10.8716 H       
  51 H51            2.1959     3.6323     0.0002 H       
  52 H52            0.9819     5.8579     0.9145 H       
  53 H53            0.9641     5.8675    -0.8654 H       
  54 H54            2.6965    -4.1481    -3.7229 H       
  55 H55            0.9455    -4.4678    -3.7088 H       
  56 H56            2.1428    -5.9320   -11.7203 H       
  57 H57           -1.5739     5.8541     0.8448 H       
  58 H58            3.9304    -7.6472   -11.7196 H       
  59 H59            3.6445    -9.2172   -11.2514 H       
  60 H60           -1.2949     5.2403    -1.8594 H       
  61 H61           -2.7350     6.0862    -1.2031 H       
  62 H62           -0.3543     8.1346     2.2281 H       
  63 H63           -0.2244    10.5784     1.9273 H       
  64 H64           -0.6002    11.5607    -0.2986 H       
  65 H65           -1.0959    10.1171    -2.2207 H       
  66 H66           -0.2918    -7.1003   -10.3222 H       
  67 H67            0.3671    -5.4332   -10.2384 H       
  68 H68           -2.1269    -6.4057   -14.3357 H       
  69 H69           -1.1863    -7.7482   -16.1626 H       
  70 H70            1.0747    -8.7019   -15.9651 H       
  71 H71            2.3962    -8.3138   -13.9201 H       
@<TRIPOS>BOND
   1    1    2 1
   2    1    3 2
   3    2    5 2
   4    3    4 1
   5    3   18 1
   6    4    5 1
   7    5    6 1
   8    6    7 1
   9    6   43 1
  10    6   44 1
  11    7   28 1
  12    7   45 1
  13    7   46 1
  14    8    9 1
  15    8   22 1
  16    8   47 1
  17    8   48 1
  18    9   10 2
  19    9   11 1
  20   10   13 1
  21   11   12 1
  22   12   13 2
  23   12   14 1
  24   14   15 am
  25   14   49 1
  26   15   16 2
  27   15   17 1
  28   17   23 1
  29   17   27 1
  30   17   50 1
  31   18   19 am
  32   18   51 1
  33   19   20 1
  34   19   21 2
  35   20   24 1
  36   20   52 1
  37   20   53 1
  38   22   28 1
  39   22   54 1
  40   22   55 1
  41   23   36 1
  42   23   26 1
  43   23   56 1
  44   24   25 1
  45   24   31 1
  46   24   57 1
  47   25   29 ar
  48   25   32 ar
  49   26   38 ar
  50   26   42 ar
  51   27   58 1
  52   27   59 1
  53   29   30 1
  54   29   35 ar
  55   30   31 1
  56   31   60 1
  57   31   61 1
  58   32   33 ar
  59   32   62 1
  60   33   34 ar
  61   33   63 1
  62   34   35 ar
  63   34   64 1
  64   35   65 1
  65   36   37 1
  66   36   66 1
  67   36   67 1
  68   37   38 1
  69   38   39 ar
  70   39   40 ar
  71   39   68 1
  72   40   41 ar
  73   40   69 1
  74   41   42 ar
  75   41   70 1
  76   42   71 1

#	End of record

