#	Name: ASD06140017
#	Creating user name:	WinNT
#	Creation time:	15. 06. 2019 21:05

#	Modifying user name:	WinNT
#	Modification time:	15. 06. 2019 21:05

#	Program:	/corina/corina34_cracker 3.40 0067  02.08.2006

@<TRIPOS>MOLECULE
ASD06140017
  47   48    0    0    0
SMALL
NO_CHARGES


@<TRIPOS>ATOM
   1 C1            -0.0154     1.3757     0.0315 C.ar    
   2 C2             0.0029    -0.0036     0.0170 C.ar    
   3 C3             1.2227    -0.6821    -0.0022 C.ar    
   4 C4             2.4167     0.0411    -0.0066 C.ar    
   5 C5             2.3842     1.4202     0.0081 C.ar    
   6 C6             1.1717     2.0865     0.0271 C.ar    
   7 C7             1.2499    -2.1598    -0.0173 C.2     
   8 N8             2.4293    -2.8120    -0.0358 N.am    
   9 O9             0.2087    -2.7870    -0.0131 O.2     
  10 C10            2.4586    -4.2014     0.0620 C.ar    
  11 C11            3.4238    -4.9260    -0.6310 C.ar    
  12 C12            1.5262    -4.8612     0.8571 C.ar    
  13 C13            1.5522    -6.2337     0.9561 C.ar    
  14 C14            2.5169    -6.9652     0.2567 C.ar    
  15 C15            3.4555    -6.2987    -0.5369 C.ar    
  16 C16            2.5483    -8.4358     0.3607 C.2     
  17 O17            3.4787    -9.1392    -0.3140 O.3     
  18 O18            1.7351    -9.0132     1.0547 O.2     
  19 C19            3.4499   -10.5832    -0.1647 C.3     
  20 C20            4.5722   -11.2047    -0.9984 C.3     
  21 C21            1.1440     3.5932     0.0431 C.3     
  22 C22            1.8432     4.1294    -1.2077 C.3     
  23 C23           -0.3076     4.0764     0.0626 C.3     
  24 C24            1.8682     4.1035     1.2905 C.3     
  25 H25           -0.9584     1.9020     0.0418 H       
  26 H26           -0.9244    -0.5572     0.0209 H       
  27 H27            3.3638    -0.4778    -0.0210 H       
  28 H28            3.3072     1.9810     0.0051 H       
  29 H29            3.2577    -2.3139    -0.1173 H       
  30 H30            4.1487    -4.4105    -1.2435 H       
  31 H31            0.7815    -4.2955     1.3973 H       
  32 H32            0.8285    -6.7451     1.5735 H       
  33 H33            4.2018    -6.8607    -1.0787 H       
  34 H34            3.5902   -10.8429     0.8846 H       
  35 H35            2.4883   -10.9649    -0.5080 H       
  36 H36            4.5506   -12.2887    -0.8864 H       
  37 H37            4.4319   -10.9450    -2.0477 H       
  38 H38            5.5338   -10.8231    -0.6551 H       
  39 H39            1.3273     3.7659    -2.0964 H       
  40 H40            1.8231     5.2192    -1.1962 H       
  41 H41            2.8773     3.7852    -1.2217 H       
  42 H42           -0.8057     3.6943     0.9537 H       
  43 H43           -0.3277     5.1661     0.0741 H       
  44 H44           -0.8235     3.7128    -0.8261 H       
  45 H45            2.9023     3.7592     1.2766 H       
  46 H46            1.8481     5.1932     1.3020 H       
  47 H47            1.3700     3.7214     2.1816 H       
@<TRIPOS>BOND
   1    1    2 ar
   2    1    6 ar
   3    1   25 1
   4    2    3 ar
   5    2   26 1
   6    3    4 ar
   7    3    7 1
   8    4    5 ar
   9    4   27 1
  10    5    6 ar
  11    5   28 1
  12    6   21 1
  13    7    8 am
  14    7    9 2
  15    8   10 1
  16    8   29 1
  17   10   11 ar
  18   10   12 ar
  19   11   15 ar
  20   11   30 1
  21   12   13 ar
  22   12   31 1
  23   13   14 ar
  24   13   32 1
  25   14   15 ar
  26   14   16 1
  27   15   33 1
  28   16   17 1
  29   16   18 2
  30   17   19 1
  31   19   20 1
  32   19   34 1
  33   19   35 1
  34   20   36 1
  35   20   37 1
  36   20   38 1
  37   21   22 1
  38   21   23 1
  39   21   24 1
  40   22   39 1
  41   22   40 1
  42   22   41 1
  43   23   42 1
  44   23   43 1
  45   23   44 1
  46   24   45 1
  47   24   46 1
  48   24   47 1

#	End of record

