#	Name: ASD02038899
#	Creating user name:	WinNT
#	Creation time:	15. 06. 2019 20:17

#	Modifying user name:	WinNT
#	Modification time:	15. 06. 2019 20:17

#	Program:	/corina/corina34_cracker 3.40 0067  02.08.2006

@<TRIPOS>MOLECULE
ASD02038899
  52   54    0    0    0
SMALL
NO_CHARGES


@<TRIPOS>ATOM
   1 N1            -0.0369     1.4372    -0.0317 N.am    
   2 C2            -0.0681    -0.0327    -0.0358 C.3     
   3 C3             1.3955    -0.5221    -0.0366 C.3     
   4 C4             2.1688     0.6940     0.5384 C.3     
   5 C5             1.3690     1.8802    -0.0556 C.3     
   6 C6            -1.1151     2.2457    -0.0147 C.2     
   7 O7            -2.2310     1.7721    -0.0994 O.2     
   8 O8            -0.9558     3.5780     0.0960 O.3     
   9 C9            -0.7755    -0.5338     1.1969 C.2     
  10 O10           -0.3938    -1.5406     1.7452 O.2     
  11 O11           -1.8295     0.1383     1.6858 O.3     
  12 C12           -0.7851    -0.5344    -1.2909 C.3     
  13 C13           -0.7047    -2.0382    -1.3481 C.ar    
  14 C14           -1.6347    -2.8063    -0.6728 C.ar    
  15 C15           -1.5609    -4.1857    -0.7252 C.ar    
  16 C16           -0.5573    -4.7970    -1.4533 C.ar    
  17 C17            0.3721    -4.0289    -2.1294 C.ar    
  18 C18            0.2957    -2.6495    -2.0805 C.ar    
  19 C19           -2.4617    -0.4023     2.8758 C.3     
  20 C20           -3.6350     0.4921     3.2811 C.3     
  21 C21           -2.1613     4.3873     0.1075 C.3     
  22 C22           -1.7887     5.8417     0.2369 C.ar    
  23 C23           -1.5668     6.6018    -0.8962 C.ar    
  24 C24           -1.2249     7.9359    -0.7776 C.ar    
  25 C25           -1.1054     8.5101     0.4742 C.ar    
  26 C26           -1.3281     7.7503     1.6073 C.ar    
  27 C27           -1.6742     6.4173     1.4885 C.ar    
  28 H28            1.5113    -1.3928     0.6088 H       
  29 H29            1.7269    -0.7454    -1.0506 H       
  30 H30            2.1293     0.7026     1.6276 H       
  31 H31            3.2003     0.7030     0.1863 H       
  32 H32            1.6871     2.0775    -1.0793 H       
  33 H33            1.4967     2.7703     0.5605 H       
  34 H34           -1.8305    -0.2274    -1.2593 H       
  35 H35           -0.3087    -0.1112    -2.1752 H       
  36 H36           -2.4187    -2.3287    -0.1039 H       
  37 H37           -2.2870    -4.7858    -0.1970 H       
  38 H38           -0.4992    -5.8746    -1.4937 H       
  39 H39            1.1564    -4.5064    -2.6979 H       
  40 H40            1.0197    -2.0494    -2.6116 H       
  41 H41           -2.8265    -1.4083     2.6683 H       
  42 H42           -1.7357    -0.4395     3.6880 H       
  43 H43           -4.1096     0.0862     4.1745 H       
  44 H44           -3.2702     1.4981     3.4887 H       
  45 H45           -4.3610     0.5293     2.4690 H       
  46 H46           -2.7106     4.2342    -0.8214 H       
  47 H47           -2.7864     4.0959     0.9516 H       
  48 H48           -1.6602     6.1532    -1.8742 H       
  49 H49           -1.0508     8.5296    -1.6628 H       
  50 H50           -0.8376     9.5523     0.5669 H       
  51 H51           -1.2344     8.1988     2.5853 H       
  52 H52           -1.8519     5.8245     2.3737 H       
@<TRIPOS>BOND
   1    1    2 1
   2    1    5 1
   3    1    6 am
   4    2    3 1
   5    2    9 1
   6    2   12 1
   7    3    4 1
   8    3   28 1
   9    3   29 1
  10    4    5 1
  11    4   30 1
  12    4   31 1
  13    5   32 1
  14    5   33 1
  15    6    7 2
  16    6    8 1
  17    8   21 1
  18    9   10 2
  19    9   11 1
  20   11   19 1
  21   12   13 1
  22   12   34 1
  23   12   35 1
  24   13   14 ar
  25   13   18 ar
  26   14   15 ar
  27   14   36 1
  28   15   16 ar
  29   15   37 1
  30   16   17 ar
  31   16   38 1
  32   17   18 ar
  33   17   39 1
  34   18   40 1
  35   19   20 1
  36   19   41 1
  37   19   42 1
  38   20   43 1
  39   20   44 1
  40   20   45 1
  41   21   22 1
  42   21   46 1
  43   21   47 1
  44   22   23 ar
  45   22   27 ar
  46   23   24 ar
  47   23   48 1
  48   24   25 ar
  49   24   49 1
  50   25   26 ar
  51   25   50 1
  52   26   27 ar
  53   26   51 1
  54   27   52 1

#	End of record

