#	Name: ASD01140567
#	Creating user name:	WinNT
#	Creation time:	15. 06. 2019 19:01

#	Modifying user name:	WinNT
#	Modification time:	15. 06. 2019 19:01

#	Program:	/corina/corina34_cracker 3.40 0067  02.08.2006

@<TRIPOS>MOLECULE
ASD01140567
 138  144    0    0    0
SMALL
NO_CHARGES


@<TRIPOS>ATOM
   1 O1             0.3930    -0.8077    -2.3242 O.3     
   2 O2             7.8213    -5.8434     0.1719 O.3     
   3 O3             8.0553    -6.5237    -2.0471 O.3     
   4 O4             4.0681    -5.1482    -1.4652 O.3     
   5 O5             2.4399    -2.6517    -4.3522 O.3     
   6 O6            -0.2819    -3.0208    -0.9802 O.3     
   7 O7             9.0664     0.0796    -0.8720 O.3     
   8 O8            11.5366     3.0534    -3.0405 O.3     
   9 O9             4.3441    -3.6461    -3.0542 O.2     
  10 O10           10.6684     1.4453     0.1353 O.3     
  11 O11           13.6704     3.9947    -2.9556 O.3     
  12 O12           12.3721     0.3532    -3.4797 O.3     
  13 O13           11.7028     6.1654    -5.8848 O.3     
  14 N14           12.3550     7.4281    -3.3777 N.3     
  15 C15            1.9660    -2.4671    -3.0200 C.3     
  16 C16            0.5008    -2.0416    -3.0355 C.3     
  17 C17            2.1594    -3.7498    -2.2084 C.3     
  18 C18            7.4077    -6.8014    -0.8058 C.3     
  19 C19            5.5149    -5.2793    -1.3954 C.3     
  20 C20           -0.4036    -3.0914    -2.4022 C.3     
  21 C21            5.8875    -6.7011    -0.9836 C.3     
  22 C22            2.7240    -1.3319    -2.3536 C.2     
  23 C23            6.0453    -4.2901    -0.3607 C.3     
  24 C24            7.5531    -4.4863    -0.1864 C.3     
  25 C25            9.4578    -6.7901    -2.0425 C.3     
  26 C26            1.2490    -4.8190    -2.7682 C.2     
  27 C27            1.6790    -0.3391    -1.9237 C.3     
  28 C28           -0.0265    -4.4778    -2.8647 C.2     
  29 C29            9.6950    -8.2894    -1.8707 C.3     
  30 C30            3.5974    -4.1804    -2.2688 C.2     
  31 C31           10.0690    -6.3258    -3.3660 C.3     
  32 C32            7.7581    -8.1906    -0.3511 C.2     
  33 C33            8.0487    -3.5527     0.9221 C.3     
  34 C34            8.7723    -8.8478    -0.8270 C.2     
  35 C35            4.0394    -1.2908    -2.1979 C.2     
  36 C36           -1.0567    -5.4319    -3.4119 C.3     
  37 C37            9.9459    -4.8050    -3.4790 C.3     
  38 C38           11.1448    -8.5265    -1.4432 C.3     
  39 C39           11.6381     2.1026    -1.9784 C.3     
  40 C40            8.0151     0.2017     0.0882 C.3     
  41 C41            9.3264    -6.9854    -4.5298 C.3     
  42 C42            8.4057    -2.2064     0.3438 C.2     
  43 C43           11.3679     0.6965    -2.5226 C.3     
  44 C44           10.3779     0.1175    -0.3058 C.3     
  45 C45           10.6044     2.4305    -0.8978 C.3     
  46 C46           11.4025    -0.3033    -1.3627 C.3     
  47 C47            6.7809     0.8136    -0.5827 C.3     
  48 C48            7.6741    -1.1582     0.6345 C.2     
  49 C49            4.7122    -0.1775    -1.5132 C.2     
  50 C50           12.7542     3.2511    -3.7618 C.3     
  51 C51           12.9113     6.1323    -3.7893 C.3     
  52 C52           11.9073     5.4073    -4.6908 C.3     
  53 C53           12.4645     4.0264    -5.0497 C.3     
  54 C54           13.1838     5.2757    -2.5501 C.3     
  55 C55            6.0193    -0.2708    -1.2950 C.2     
  56 C56           10.6663    -4.3274    -4.7415 C.3     
  57 C57           10.9038     3.8097    -0.3070 C.3     
  58 C58            7.2211     1.8760    -1.5919 C.3     
  59 C59            6.4730    -1.3328     1.5309 C.3     
  60 C60           14.2312     5.9652    -1.6734 C.3     
  61 C61           11.9202    -0.5365    -4.5025 C.3     
  62 C62           13.3307     8.5077    -3.5790 C.3     
  63 C63           10.4005     6.0140    -6.4534 C.3     
  64 H64            0.1876    -1.8805    -4.0687 H       
  65 H65            1.8863    -3.5478    -1.1680 H       
  66 H66            5.9387    -5.0627    -2.3752 H       
  67 H67           -1.4373    -2.8913    -2.6840 H       
  68 H68            5.5654    -7.3992    -1.7562 H       
  69 H69            5.3948    -6.9478    -0.0431 H       
  70 H70            5.8484    -3.2723    -0.6975 H       
  71 H71            5.5448    -4.4591     0.5928 H       
  72 H72            8.0655    -4.2436    -1.1166 H       
  73 H73            9.9268    -6.2517    -1.2188 H       
  74 H74            1.6127    -5.7909    -3.0674 H       
  75 H75            1.8777     0.6250    -2.3918 H       
  76 H76            1.7053    -0.2284    -0.8397 H       
  77 H77            9.5130    -8.7940    -2.8196 H       
  78 H78           11.1211    -6.6087    -3.3994 H       
  79 H79            7.1423    -8.6609     0.4013 H       
  80 H80            7.2639    -3.4289     1.6684 H       
  81 H81            8.9291    -3.9881     1.3948 H       
  82 H82            8.9605    -9.8437    -0.4540 H       
  83 H83            2.3191    -1.8806    -4.9230 H       
  84 H84            4.6384    -2.1048    -2.5918 H       
  85 H85           -1.1371    -5.3002    -4.4909 H       
  86 H86           -0.7561    -6.4563    -3.1922 H       
  87 H87           -2.0221    -5.2292    -2.9482 H       
  88 H88            8.8930    -4.5288    -3.5350 H       
  89 H89           10.3980    -4.3379    -2.6040 H       
  90 H90           11.3329    -8.0168    -0.4983 H       
  91 H91           11.3170    -9.5957    -1.3199 H       
  92 H92           11.8173    -8.1358    -2.2069 H       
  93 H93           12.6394     2.1411    -1.5496 H       
  94 H94           -0.8299    -3.6612    -0.5062 H       
  95 H95            8.3419     0.8471     0.9034 H       
  96 H96            8.2743    -6.7026    -4.4964 H       
  97 H97            9.7618    -6.6547    -5.4728 H       
  98 H98            9.4141    -8.0689    -4.4493 H       
  99 H99           10.3874     0.6717    -2.9981 H       
 100 H100           9.2650    -2.1104    -0.3001 H       
 101 H101          10.4278    -0.5662     0.5416 H       
 102 H102           9.6070     2.4319    -1.3374 H       
 103 H103          11.1566    -1.2988    -1.7324 H       
 104 H104          12.3987    -0.3138    -0.9203 H       
 105 H105           6.1435     1.2705     0.1744 H       
 106 H106          13.1909     2.2838    -4.0100 H       
 107 H107           4.1505     0.6873    -1.2001 H       
 108 H108          13.8415     6.2919    -4.3346 H       
 109 H109          10.9598     5.2940    -4.1640 H       
 110 H110          13.3860     4.1424    -5.6202 H       
 111 H111          11.7322     3.4818    -5.6458 H       
 112 H112          12.2607     5.1514    -1.9840 H       
 113 H113           6.5446    -1.1585    -1.6255 H       
 114 H114          10.5786    -3.2439    -4.8220 H       
 115 H115          11.7193    -4.6036    -4.6855 H       
 116 H116          10.2142    -4.7945    -5.6165 H       
 117 H117          11.9357     3.8388     0.0428 H       
 118 H118          10.7577     4.5722    -1.0720 H       
 119 H119          10.2312     4.0005     0.5293 H       
 120 H120           7.9144     1.4328    -2.3068 H       
 121 H121           6.3483     2.2580    -2.1212 H       
 122 H122           7.7143     2.6939    -1.0666 H       
 123 H123           5.9491    -0.3817     1.6258 H       
 124 H124           5.8023    -2.0756     1.0991 H       
 125 H125           6.8000    -1.6672     2.5155 H       
 126 H126          11.4939     7.6234    -3.8659 H       
 127 H127          15.1240     6.1675    -2.2651 H       
 128 H128          13.8266     6.9034    -1.2938 H       
 129 H129          14.4892     5.3159    -0.8368 H       
 130 H130          14.1892     8.3478    -2.9266 H       
 131 H131          13.6597     8.5110    -4.6182 H       
 132 H132          12.8673     9.4652    -3.3415 H       
 133 H133          11.0990    -0.0738    -5.0498 H       
 134 H134          12.7405    -0.7481    -5.1884 H       
 135 H135          11.5765    -1.4664    -4.0494 H       
 136 H136          10.3254     6.6207    -7.3559 H       
 137 H137          10.2333     4.9666    -6.7048 H       
 138 H138           9.6496     6.3392    -5.7334 H       
@<TRIPOS>BOND
   1    1   16 1
   2    1   27 1
   3    2   24 1
   4    2   18 1
   5    3   25 1
   6    3   18 1
   7    4   19 1
   8    4   30 1
   9    5   83 1
  10    5   15 1
  11    6   94 1
  12    6   20 1
  13    7   40 1
  14    7   44 1
  15    8   39 1
  16    8   50 1
  17    9   30 2
  18   10   44 1
  19   10   45 1
  20   11   50 1
  21   11   54 1
  22   12   61 1
  23   12   43 1
  24   13   63 1
  25   13   52 1
  26   14   62 1
  27   14  126 1
  28   14   51 1
  29   15   16 1
  30   15   22 1
  31   15   17 1
  32   16   20 1
  33   16   64 1
  34   17   26 1
  35   17   30 1
  36   17   65 1
  37   18   21 1
  38   18   32 1
  39   19   21 1
  40   19   23 1
  41   19   66 1
  42   20   28 1
  43   20   67 1
  44   21   68 1
  45   21   69 1
  46   22   27 1
  47   22   35 2
  48   23   24 1
  49   23   70 1
  50   23   71 1
  51   24   33 1
  52   24   72 1
  53   25   29 1
  54   25   31 1
  55   25   73 1
  56   26   28 2
  57   26   74 1
  58   27   75 1
  59   27   76 1
  60   28   36 1
  61   29   34 1
  62   29   38 1
  63   29   77 1
  64   31   37 1
  65   31   41 1
  66   31   78 1
  67   32   34 2
  68   32   79 1
  69   33   42 1
  70   33   80 1
  71   33   81 1
  72   34   82 1
  73   35   49 1
  74   35   84 1
  75   36   85 1
  76   36   86 1
  77   36   87 1
  78   37   56 1
  79   37   88 1
  80   37   89 1
  81   38   90 1
  82   38   91 1
  83   38   92 1
  84   39   43 1
  85   39   93 1
  86   39   45 1
  87   40   47 1
  88   40   48 1
  89   40   95 1
  90   41   96 1
  91   41   97 1
  92   41   98 1
  93   42   48 2
  94   42  100 1
  95   43   46 1
  96   43   99 1
  97   44   46 1
  98   44  101 1
  99   45   57 1
 100   45  102 1
 101   46  103 1
 102   46  104 1
 103   47   55 1
 104   47   58 1
 105   47  105 1
 106   48   59 1
 107   49   55 2
 108   49  107 1
 109   50   53 1
 110   50  106 1
 111   51   52 1
 112   51  108 1
 113   51   54 1
 114   52   53 1
 115   52  109 1
 116   53  110 1
 117   53  111 1
 118   54   60 1
 119   54  112 1
 120   55  113 1
 121   56  114 1
 122   56  115 1
 123   56  116 1
 124   57  117 1
 125   57  118 1
 126   57  119 1
 127   58  120 1
 128   58  121 1
 129   58  122 1
 130   59  123 1
 131   59  124 1
 132   59  125 1
 133   60  127 1
 134   60  128 1
 135   60  129 1
 136   61  133 1
 137   61  134 1
 138   61  135 1
 139   62  130 1
 140   62  131 1
 141   62  132 1
 142   63  136 1
 143   63  137 1
 144   63  138 1

#	End of record

