#	Name: ASD09610004
#	Creating user name:	WinNT
#	Creation time:	15. 06. 2019 21:22

#	Modifying user name:	WinNT
#	Modification time:	15. 06. 2019 21:22

#	Program:	/corina/corina34_cracker 3.40 0067  02.08.2006

@<TRIPOS>MOLECULE
ASD09610004
  37   38    0    0    0
SMALL
NO_CHARGES


@<TRIPOS>ATOM
   1 N1            -0.0167     1.2746    -0.0760 N.pl3   
   2 N2             0.0065    -0.0095    -0.0423 N.2     
   3 C3             1.2511    -0.4386     0.0418 C.2     
   4 C4             2.0852     0.7052     0.0623 C.2     
   5 C5             1.2483     1.7661    -0.0137 C.2     
   6 C6             1.6911    -1.8454     0.1031 C.2     
   7 O7             2.8746    -2.1090     0.1799 O.2     
   8 O8             0.7803    -2.8379     0.0738 O.3     
   9 C9             1.6452     3.2199    -0.0268 C.3     
  10 C10            2.8605     3.4249     0.8798 C.3     
  11 C11            1.9980     3.6394    -1.4553 C.3     
  12 C12           -1.1774     2.0545    -0.1693 C.ar    
  13 C13           -2.1193     1.7858    -1.1555 C.ar    
  14 C14           -3.2629     2.5563    -1.2446 C.ar    
  15 C15           -3.4701     3.5946    -0.3531 C.ar    
  16 C16           -2.5334     3.8638     0.6291 C.ar    
  17 C17           -1.3913     3.0929     0.7266 C.ar    
  18 Cl18          -4.9075     4.5612    -0.4678 Cl      
  19 Cl19          -1.8589     0.4843    -2.2744 Cl      
  20 C20            1.2851    -4.1979     0.1377 C.3     
  21 C21            0.1125    -5.1797     0.0926 C.3     
  22 H22            3.1631     0.7266     0.1256 H       
  23 H23            0.8152     3.8264     0.3355 H       
  24 H24            3.1476     4.4764     0.8703 H       
  25 H25            2.6092     3.1261     1.8975 H       
  26 H26            3.6905     2.8184     0.5175 H       
  27 H27            1.1322     3.4933    -2.1012 H       
  28 H28            2.2851     4.6908    -1.4647 H       
  29 H29            2.8281     3.0328    -1.8175 H       
  30 H30           -3.9954     2.3484    -2.0105 H       
  31 H31           -2.6974     4.6751     1.3229 H       
  32 H32           -0.6629     3.3011     1.4964 H       
  33 H33            1.9449    -4.3807    -0.7104 H       
  34 H34            1.8395    -4.3364     1.0659 H       
  35 H35            0.4915    -6.2006     0.1406 H       
  36 H36           -0.5473    -4.9968     0.9407 H       
  37 H37           -0.4419    -5.0412    -0.8356 H       
@<TRIPOS>BOND
   1    1    2 1
   2    1    5 1
   3    1   12 1
   4    2    3 2
   5    3    4 1
   6    3    6 1
   7    4    5 2
   8    4   22 1
   9    5    9 1
  10    6    7 2
  11    6    8 1
  12    8   20 1
  13    9   10 1
  14    9   11 1
  15    9   23 1
  16   10   24 1
  17   10   25 1
  18   10   26 1
  19   11   27 1
  20   11   28 1
  21   11   29 1
  22   12   13 ar
  23   12   17 ar
  24   13   14 ar
  25   13   19 1
  26   14   15 ar
  27   14   30 1
  28   15   16 ar
  29   15   18 1
  30   16   17 ar
  31   16   31 1
  32   17   32 1
  33   20   21 1
  34   20   33 1
  35   20   34 1
  36   21   35 1
  37   21   36 1
  38   21   37 1

#	End of record

