#	Name: ASD03240912
#	Creating user name:	WinNT
#	Creation time:	15. 06. 2019 20:35

#	Modifying user name:	WinNT
#	Modification time:	15. 06. 2019 20:35

#	Program:	/corina/corina34_cracker 3.40 0067  02.08.2006

@<TRIPOS>MOLECULE
ASD03240912
  58   63    0    0    0
SMALL
NO_CHARGES


@<TRIPOS>ATOM
   1 C1             2.0569     2.6367    -1.2738 C.3     
   2 C2             1.9629     1.7822     0.0014 C.3     
   3 C3             2.0418     0.5488    -0.9137 C.3     
   4 C4             2.7766     1.4440    -1.9254 C.3     
   5 O5             0.7877     2.9299    -1.8613 O.3     
   6 C6             2.9414     3.8753    -1.1177 C.3     
   7 C7             2.8960    -0.5614    -0.3581 C.ar    
   8 C8             2.6065    -1.8770    -0.6734 C.ar    
   9 C9             3.3845    -2.8980    -0.1675 C.ar    
  10 C10            4.4651    -2.6014     0.6632 C.ar    
  11 C11            4.7522    -1.2730     0.9771 C.ar    
  12 C12            3.9698    -0.2605     0.4607 C.ar    
  13 N13            6.8241    -6.7070     0.0206 N.pl3   
  14 C14            7.5992    -7.7257     0.5048 C.2     
  15 N15            8.0028    -7.7667     1.7870 N.2     
  16 C16            7.6781    -6.8352     2.6464 C.2     
  17 C17            6.8525    -5.7153     2.2014 C.ar    
  18 C18            6.4722    -4.6882     3.0742 C.ar    
  19 C19            5.6831    -3.6595     2.5654 C.ar    
  20 C20            5.3040    -3.6925     1.2100 C.ar    
  21 N21            5.6833    -4.6818     0.4147 N.ar    
  22 C22            6.4317    -5.6783     0.8554 C.ar    
  23 C23            7.8255    -8.5943    -0.5543 C.2     
  24 C24            7.1766    -8.0793    -1.6695 C.2     
  25 N25            6.5765    -6.9626    -1.3335 N.2     
  26 C26            5.2479    -2.5443     3.4398 C.ar    
  27 C27            6.1833    -1.6359     3.9330 C.ar    
  28 C28            5.7723    -0.5994     4.7462 C.ar    
  29 C29            4.4350    -0.4609     5.0720 C.ar    
  30 C30            3.5024    -1.3594     4.5858 C.ar    
  31 C31            3.9009    -2.3965     3.7672 C.ar    
  32 C32            7.1603    -8.7046    -3.0405 C.3     
  33 Cl33           6.9671    -4.6979     4.7382 Cl      
  34 N34            0.7314     0.0810    -1.3850 N.3     
  35 H35            2.8219     1.8902     0.6636 H       
  36 H36            1.0105     1.8791     0.5226 H       
  37 H37            2.4811     1.2678    -2.9597 H       
  38 H38            3.8580     1.4595    -1.7899 H       
  39 H39            0.8404     3.4670    -2.6636 H       
  40 H40            3.9541     3.5681    -0.8566 H       
  41 H41            2.9603     4.4289    -2.0565 H       
  42 H42            2.5399     4.5114    -0.3289 H       
  43 H43            1.7695    -2.1053    -1.3167 H       
  44 H44            3.1571    -3.9246    -0.4138 H       
  45 H45            5.5875    -1.0371     1.6197 H       
  46 H46            4.1934     0.7686     0.6997 H       
  47 H47            8.0158    -6.8934     3.6706 H       
  48 H48            8.4024    -9.5066    -0.5178 H       
  49 H49            7.2276    -1.7434     3.6796 H       
  50 H50            6.4961     0.1047     5.1292 H       
  51 H51            4.1180     0.3518     5.7087 H       
  52 H52            2.4598    -1.2465     4.8438 H       
  53 H53            3.1713    -3.0946     3.3843 H       
  54 H54            6.3096    -9.3813    -3.1212 H       
  55 H55            7.0757    -7.9229    -3.7954 H       
  56 H56            8.0840    -9.2620    -3.1966 H       
  57 H57            0.8289    -0.7276    -1.9806 H       
  58 H58            0.1164    -0.1135    -0.6090 H       
@<TRIPOS>BOND
   1    1    2 1
   2    1    4 1
   3    1    5 1
   4    1    6 1
   5    2    3 1
   6    2   35 1
   7    2   36 1
   8    3    4 1
   9    3    7 1
  10    3   34 1
  11    4   37 1
  12    4   38 1
  13    5   39 1
  14    6   40 1
  15    6   41 1
  16    6   42 1
  17    7    8 ar
  18    7   12 ar
  19    8    9 ar
  20    8   43 1
  21    9   10 ar
  22    9   44 1
  23   10   11 ar
  24   10   20 1
  25   11   12 ar
  26   11   45 1
  27   12   46 1
  28   13   14 1
  29   13   22 1
  30   13   25 1
  31   14   15 1
  32   14   23 2
  33   15   16 2
  34   16   17 1
  35   16   47 1
  36   17   18 ar
  37   17   22 ar
  38   18   19 ar
  39   18   33 1
  40   19   20 ar
  41   19   26 1
  42   20   21 ar
  43   21   22 ar
  44   23   24 1
  45   23   48 1
  46   24   25 2
  47   24   32 1
  48   26   27 ar
  49   26   31 ar
  50   27   28 ar
  51   27   49 1
  52   28   29 ar
  53   28   50 1
  54   29   30 ar
  55   29   51 1
  56   30   31 ar
  57   30   52 1
  58   31   53 1
  59   32   54 1
  60   32   55 1
  61   32   56 1
  62   34   57 1
  63   34   58 1

#	End of record

