#	Name: ASD01470056
#	Creating user name:	WinNT
#	Creation time:	15. 06. 2019 19:21

#	Modifying user name:	WinNT
#	Modification time:	15. 06. 2019 19:21

#	Program:	/corina/corina34_cracker 3.40 0067  02.08.2006

@<TRIPOS>MOLECULE
ASD01470056
  35   38    0    0    0
SMALL
NO_CHARGES


@<TRIPOS>ATOM
   1 O1            -0.0164     1.3552     0.0095 O.3     
   2 C2             0.0021    -0.0041     0.0020 C.ar    
   3 C3             0.0230    -0.7025     1.2019 C.ar    
   4 C4             0.0417    -2.0811     1.1993 C.ar    
   5 C5             0.0397    -2.7752    -0.0132 C.ar    
   6 C6             0.0186    -2.0681    -1.2180 C.ar    
   7 C7            -0.0058    -0.6897    -1.2054 C.ar    
   8 N8             0.0587    -4.1434    -0.0208 N.2     
   9 C9            -0.7431    -4.8060    -0.8198 C.2     
  10 N10           -0.8358    -6.1661    -0.9367 N.am    
  11 C11           -1.7028    -6.6742    -1.7966 C.2     
  12 O12           -1.8408    -7.8717    -1.9543 O.2     
  13 C13           -2.4913    -5.6786    -2.5509 C.2     
  14 C14           -3.4624    -5.9153    -3.5078 C.2     
  15 C15           -3.9386    -7.2218    -3.9990 C.2     
  16 O16           -3.5426    -8.3125    -3.6317 O.2     
  17 N17           -4.8870    -6.9955    -4.9239 N.am    
  18 C18           -5.1007    -5.6343    -5.1076 C.ar    
  19 C19           -4.2520    -4.9140    -4.2546 C.ar    
  20 C20           -4.2764    -3.5218    -4.2496 C.ar    
  21 C21           -5.1411    -2.8500    -5.0894 C.ar    
  22 C22           -5.9807    -3.5584    -5.9331 C.ar    
  23 C23           -5.9670    -4.9388    -5.9433 C.ar    
  24 S24           -1.9188    -4.1112    -1.9486 S.3     
  25 H25            0.8616     1.7605     0.0033 H       
  26 H26            0.0249    -0.1650     2.1386 H       
  27 H27            0.0583    -2.6235     2.1330 H       
  28 H28            0.0174    -2.6004    -2.1577 H       
  29 H29           -0.0224    -0.1421    -2.1361 H       
  30 H30           -0.2755    -6.7472    -0.3988 H       
  31 H31           -5.3616    -7.6930    -5.4026 H       
  32 H32           -3.6217    -2.9702    -3.5912 H       
  33 H33           -5.1635    -1.7702    -5.0885 H       
  34 H34           -6.6550    -3.0256    -6.5873 H       
  35 H35           -6.6267    -5.4794    -6.6059 H       
@<TRIPOS>BOND
   1    1    2 1
   2    1   25 1
   3    2    3 ar
   4    2    7 ar
   5    3    4 ar
   6    3   26 1
   7    4    5 ar
   8    4   27 1
   9    5    6 ar
  10    5    8 1
  11    6    7 ar
  12    6   28 1
  13    7   29 1
  14    8    9 2
  15    9   10 1
  16    9   24 1
  17   10   11 am
  18   10   30 1
  19   11   12 2
  20   11   13 1
  21   13   14 2
  22   13   24 1
  23   14   15 1
  24   14   19 1
  25   15   16 2
  26   15   17 am
  27   17   18 1
  28   17   31 1
  29   18   19 ar
  30   18   23 ar
  31   19   20 ar
  32   20   21 ar
  33   20   32 1
  34   21   22 ar
  35   21   33 1
  36   22   23 ar
  37   22   34 1
  38   23   35 1

#	End of record

