#	Name: ASD03731587
#	Creating user name:	WinNT
#	Creation time:	15. 06. 2019 20:46

#	Modifying user name:	WinNT
#	Modification time:	15. 06. 2019 20:46

#	Program:	/corina/corina34_cracker 3.40 0067  02.08.2006

@<TRIPOS>MOLECULE
ASD03731587
  39   40    0    0    0
SMALL
NO_CHARGES


@<TRIPOS>ATOM
   1 C1            -0.0158     1.4702     0.0319 C.2     
   2 C2             0.0036    -0.0042     0.0181 C.ar    
   3 C3             1.2239    -0.6904     0.0140 C.ar    
   4 C4             1.2362    -2.0706     0.0010 C.ar    
   5 C5             0.0410    -2.7771    -0.0085 C.ar    
   6 C6            -1.1737    -2.0983    -0.0045 C.ar    
   7 C7            -1.1963    -0.7213     0.0147 C.ar    
   8 O8             1.0292     2.0919     0.0398 O.2     
   9 N9            -1.1917     2.1286     0.0301 N.am    
  10 S10           -1.2136     3.7844     0.0457 S.o2    
  11 O11           -2.5951     4.1165     0.0652 O.2     
  12 O12           -0.3603     4.1360     1.1262 O.2     
  13 C13           -0.4664     4.2618    -1.5369 C.3     
  14 F14            2.3871    -0.0032     0.0224 F       
  15 O15            0.0574    -4.1342    -0.0222 O.3     
  16 C16            1.3327    -4.7663    -0.1492 C.3     
  17 C17            1.9703    -4.8835     1.2100 C.2     
  18 C18            1.6826    -5.9216     1.9966 C.2     
  19 C19            0.7389    -6.9540     1.5271 C.2     
  20 C20            0.4818    -7.0698     0.2285 C.2     
  21 C21            1.1522    -6.1548    -0.7612 C.3     
  22 O22            2.2554    -6.0276     3.2244 O.3     
  23 C23            3.1584    -4.9897     3.6108 C.3     
  24 F24            4.2218    -4.9351     2.7033 F       
  25 F25            2.4852    -3.7633     3.6146 F       
  26 Cl26          -0.0318    -8.0133     2.6661 Cl      
  27 Cl27          -2.6637    -2.9890    -0.0165 Cl      
  28 H28            2.1767    -2.6017    -0.0021 H       
  29 H29           -2.1400    -0.1961     0.0226 H       
  30 H30           -2.0253     1.6327     0.0198 H       
  31 H31           -1.0592     3.8547    -2.3560 H       
  32 H32           -0.4398     5.3488    -1.6129 H       
  33 H33            0.5487     3.8688    -1.5926 H       
  34 H34            1.9710    -4.1665    -0.7979 H       
  35 H35            2.6619    -4.1260     1.5482 H       
  36 H36           -0.2102    -7.8232    -0.1181 H       
  37 H37            0.5366    -6.0778    -1.6575 H       
  38 H38            2.1274    -6.5622    -1.0278 H       
  39 H39            3.5433    -5.1960     4.6095 H       
@<TRIPOS>BOND
   1    1    2 1
   2    1    8 2
   3    1    9 am
   4    2    3 ar
   5    2    7 ar
   6    3    4 ar
   7    3   14 1
   8    4    5 ar
   9    4   28 1
  10    5    6 ar
  11    5   15 1
  12    6    7 ar
  13    6   27 1
  14    7   29 1
  15    9   10 am
  16    9   30 1
  17   10   11 2
  18   10   12 2
  19   10   13 1
  20   13   31 1
  21   13   32 1
  22   13   33 1
  23   15   16 1
  24   16   17 1
  25   16   21 1
  26   16   34 1
  27   17   18 2
  28   17   35 1
  29   18   19 1
  30   18   22 1
  31   19   20 2
  32   19   26 1
  33   20   21 1
  34   20   36 1
  35   21   37 1
  36   21   38 1
  37   22   23 1
  38   23   24 1
  39   23   25 1
  40   23   39 1

#	End of record

