#	Name: ASD02030529
#	Creating user name:	WinNT
#	Creation time:	15. 06. 2019 20:15

#	Modifying user name:	WinNT
#	Modification time:	15. 06. 2019 20:15

#	Program:	/corina/corina34_cracker 3.40 0067  02.08.2006

@<TRIPOS>MOLECULE
ASD02030529
  55   58    0    0    0
SMALL
NO_CHARGES


@<TRIPOS>ATOM
   1 N1            -1.1420     0.8175    -2.0993 N.am    
   2 C2            -1.3901    -0.6073    -1.8376 C.3     
   3 C3            -1.6722    -0.7888    -0.3410 C.3     
   4 N4            -2.6857     0.1935     0.0684 N.am    
   5 C5            -2.4376     1.6183    -0.1933 C.3     
   6 C6            -2.1530     1.8003    -1.6848 C.3     
   7 C7            -0.0051     1.2161    -2.7034 C.2     
   8 C8             1.0648     0.2357    -2.9859 C.2     
   9 N9             2.2640     0.5117    -3.4513 N.2     
  10 N10            0.9857    -1.0957    -2.8068 N.2     
  11 C11            2.1346    -1.6060    -3.1704 C.2     
  12 N12            2.9241    -0.5884    -3.5711 N.pl3   
  13 O13            0.1406     2.3817    -3.0161 O.2     
  14 C14           -3.8226    -0.2050     0.6726 C.2     
  15 C15           -4.1307    -1.6337     0.7852 C.2     
  16 O16           -4.5934     0.6212     1.1246 O.2     
  17 C17           -1.6300     3.2155    -1.9388 C.3     
  18 C18           -3.4376     1.5727    -2.4842 C.3     
  19 C19            4.2397    -0.7075    -4.0391 C.ar    
  20 C20            4.9466     0.4241    -4.4222 C.ar    
  21 C21            6.2444     0.3032    -4.8830 C.ar    
  22 C22            6.8379    -0.9443    -4.9627 C.ar    
  23 C23            6.1353    -2.0727    -4.5815 C.ar    
  24 C24            4.8406    -1.9572    -4.1151 C.ar    
  25 C25           -5.3146    -2.2193     0.4349 C.2     
  26 Cl26           7.1299     1.7173    -5.3624 Cl      
  27 S27           -3.0335    -2.8695     1.3857 S.3     
  28 C28           -4.2023    -4.0894     1.1471 C.2     
  29 C29           -5.3322    -3.5778     0.6448 C.2     
  30 C30           -3.9891    -5.5487     1.4566 C.3     
  31 C31           -3.4222    -6.2542     0.2230 C.3     
  32 H32           -2.2522    -0.9406    -2.4154 H       
  33 H33           -0.5119    -1.1890    -2.1175 H       
  34 H34           -2.0449    -1.7967    -0.1586 H       
  35 H35           -0.7556    -0.6268     0.2263 H       
  36 H36           -3.3158     2.2000     0.0867 H       
  37 H37           -1.5755     1.9516     0.3845 H       
  38 H38            2.4030    -2.6519    -3.1503 H       
  39 H39           -0.5878     3.2793    -1.6258 H       
  40 H40           -1.7048     3.4452    -3.0017 H       
  41 H41           -2.2247     3.9302    -1.3699 H       
  42 H42           -4.1937     2.2919    -2.1694 H       
  43 H43           -3.2322     1.7029    -3.5467 H       
  44 H44           -3.8020     0.5610    -2.3059 H       
  45 H45            4.4832     1.3976    -4.3606 H       
  46 H46            7.8516    -1.0369    -5.3236 H       
  47 H47            6.6009    -3.0451    -4.6452 H       
  48 H48            4.2928    -2.8391    -3.8173 H       
  49 H49           -6.1531    -1.6696     0.0335 H       
  50 H50           -6.1955    -4.1874     0.4221 H       
  51 H51           -3.2874    -5.6457     2.2851 H       
  52 H52           -4.9404    -6.0047     1.7308 H       
  53 H53           -2.4709    -5.7982    -0.0513 H       
  54 H54           -3.2680    -7.3097     0.4468 H       
  55 H55           -4.1238    -6.1572    -0.6055 H       
@<TRIPOS>BOND
   1    1    2 1
   2    1    7 am
   3    1    6 1
   4    2    3 1
   5    2   32 1
   6    2   33 1
   7    3    4 1
   8    3   34 1
   9    3   35 1
  10    4    5 1
  11    4   14 am
  12    5    6 1
  13    5   36 1
  14    5   37 1
  15    6   17 1
  16    6   18 1
  17    7    8 1
  18    7   13 2
  19    8    9 2
  20    8   10 1
  21    9   12 1
  22   10   11 2
  23   11   12 1
  24   11   38 1
  25   12   19 1
  26   14   15 1
  27   14   16 2
  28   15   27 1
  29   15   25 2
  30   17   39 1
  31   17   40 1
  32   17   41 1
  33   18   42 1
  34   18   43 1
  35   18   44 1
  36   19   20 ar
  37   19   24 ar
  38   20   21 ar
  39   20   45 1
  40   21   22 ar
  41   21   26 1
  42   22   23 ar
  43   22   46 1
  44   23   24 ar
  45   23   47 1
  46   24   48 1
  47   25   29 1
  48   25   49 1
  49   27   28 1
  50   28   29 2
  51   28   30 1
  52   29   50 1
  53   30   31 1
  54   30   51 1
  55   30   52 1
  56   31   53 1
  57   31   54 1
  58   31   55 1

#	End of record

