#	Name: ASD03540085
#	Creating user name:	WinNT
#	Creation time:	15. 06. 2019 20:42

#	Modifying user name:	WinNT
#	Modification time:	15. 06. 2019 20:42

#	Program:	/corina/corina34_cracker 3.40 0067  02.08.2006

@<TRIPOS>MOLECULE
ASD03540085
  48   50    0    0    0
SMALL
NO_CHARGES


@<TRIPOS>ATOM
   1 C1            -0.0179     1.4709     0.0101 C.2     
   2 C2             0.0021    -0.0041     0.0020 C.ar    
   3 C3             1.2183    -0.6844    -0.0132 C.ar    
   4 C4             1.2312    -2.0772    -0.0204 C.ar    
   5 C5             2.5132    -2.8053    -0.0360 C.2     
   6 C6             0.0183    -2.7856    -0.0121 C.ar    
   7 C7            -1.1880    -2.0968     0.0031 C.ar    
   8 C8            -1.2006    -0.7205     0.0155 C.ar    
   9 O9             1.0259     2.0926     0.0035 O.2     
  10 O10           -1.1938     2.1287     0.0193 O.3     
  11 O11            2.5219    -4.0203    -0.0423 O.2     
  12 O12            3.6753    -2.1233    -0.0435 O.3     
  13 O13            0.0249    -4.1401    -0.0195 O.3     
  14 C14           -1.2451    -4.7951    -0.0104 C.3     
  15 C15           -1.1375     3.5795     0.0269 C.3     
  16 C16           -2.5378     4.1366     0.0366 C.ar    
  17 C17           -3.1743     4.3855     1.2381 C.ar    
  18 C18           -4.4587     4.8964     1.2470 C.ar    
  19 C19           -5.1065     5.1588     0.0543 C.ar    
  20 C20           -4.4696     4.9107    -1.1472 C.ar    
  21 C21           -3.1835     4.4038    -1.1561 C.ar    
  22 C22            4.8986    -2.9054    -0.0589 C.3     
  23 C23            6.0871    -1.9789    -0.0653 C.ar    
  24 C24            6.6434    -1.5600     1.1288 C.ar    
  25 C25            7.7336    -0.7101     1.1229 C.ar    
  26 C26            8.2678    -0.2795    -0.0771 C.ar    
  27 C27            7.7120    -0.6991    -1.2713 C.ar    
  28 C28            6.6245    -1.5524    -1.2654 C.ar    
  29 H29            2.1473    -0.1337    -0.0199 H       
  30 H30           -2.1195    -2.6434     0.0090 H       
  31 H31           -2.1419    -0.1912     0.0315 H       
  32 H32           -1.0971    -5.8750    -0.0177 H       
  33 H33           -1.7947    -4.5098     0.8866 H       
  34 H34           -1.8123    -4.5002    -0.8932 H       
  35 H35           -0.6058     3.9178     0.9162 H       
  36 H36           -0.6142     3.9275    -0.8637 H       
  37 H37           -2.6682     4.1805     2.1699 H       
  38 H38           -4.9563     5.0903     2.1857 H       
  39 H39           -6.1102     5.5573     0.0612 H       
  40 H40           -4.9758     5.1153    -2.0791 H       
  41 H41           -2.6846     4.2134    -2.0948 H       
  42 H42            4.9362    -3.5385     0.8276 H       
  43 H43            4.9196    -3.5295    -0.9522 H       
  44 H44            6.2261    -1.8965     2.0664 H       
  45 H45            8.1678    -0.3823     2.0559 H       
  46 H46            9.1191     0.3851    -0.0818 H       
  47 H47            8.1292    -0.3624    -2.2088 H       
  48 H48            6.1926    -1.8832    -2.1984 H       
@<TRIPOS>BOND
   1    1    2 1
   2    1    9 2
   3    1   10 1
   4    2    3 ar
   5    2    8 ar
   6    3    4 ar
   7    3   29 1
   8    4    5 1
   9    4    6 ar
  10    5   11 2
  11    5   12 1
  12    6    7 ar
  13    6   13 1
  14    7    8 ar
  15    7   30 1
  16    8   31 1
  17   10   15 1
  18   12   22 1
  19   13   14 1
  20   14   32 1
  21   14   33 1
  22   14   34 1
  23   15   16 1
  24   15   35 1
  25   15   36 1
  26   16   17 ar
  27   16   21 ar
  28   17   18 ar
  29   17   37 1
  30   18   19 ar
  31   18   38 1
  32   19   20 ar
  33   19   39 1
  34   20   21 ar
  35   20   40 1
  36   21   41 1
  37   22   23 1
  38   22   42 1
  39   22   43 1
  40   23   24 ar
  41   23   28 ar
  42   24   25 ar
  43   24   44 1
  44   25   26 ar
  45   25   45 1
  46   26   27 ar
  47   26   46 1
  48   27   28 ar
  49   27   47 1
  50   28   48 1

#	End of record

