#	Name: ASD04910432
#	Creating user name:	WinNT
#	Creation time:	15. 06. 2019 20:55

#	Modifying user name:	WinNT
#	Modification time:	15. 06. 2019 20:55

#	Program:	/corina/corina34_cracker 3.40 0067  02.08.2006

@<TRIPOS>MOLECULE
ASD04910432
  65   69    0    0    0
SMALL
NO_CHARGES


@<TRIPOS>ATOM
   1 C1            -0.0447     1.3862     0.0096 C.ar    
   2 C2            -0.0138     0.0030     0.0025 C.ar    
   3 C3             1.1961    -0.6680    -0.0105 C.ar    
   4 C4             2.3806     0.0393    -0.0165 C.ar    
   5 C5             2.3564     1.4349    -0.0098 C.ar    
   6 C6             1.1324     2.1055     0.0032 C.ar    
   7 C7             3.6219     2.1993    -0.0157 C.2     
   8 N8             3.5952     3.5468    -0.0093 N.am    
   9 O9             4.6864     1.6126    -0.0263 O.2     
  10 C10            4.8491     4.3043    -0.0151 C.3     
  11 C11            4.5399     5.8027    -0.0059 C.3     
  12 C12            5.8297     6.5819    -0.0119 C.2     
  13 O13            5.8032     7.9240    -0.0055 O.3     
  14 O14            6.8878     5.9987    -0.0224 O.2     
  15 C15           -1.3037    -0.7763     0.0095 C.3     
  16 C16           -1.6226    -1.2474    -1.4108 C.3     
  17 O17           -1.1705    -1.9102     0.8688 O.3     
  18 C18           -1.4047    -1.7119     2.1929 C.ar    
  19 C19           -1.4040    -2.7901     3.0665 C.ar    
  20 C20           -1.6417    -2.5893     4.4113 C.ar    
  21 C21           -1.8815    -1.3078     4.8901 C.ar    
  22 C22           -1.8820    -0.2292     4.0153 C.ar    
  23 C23           -1.6386    -0.4305     2.6716 C.ar    
  24 N24           -2.1234    -1.1034     6.2552 N.pl3   
  25 C25           -2.3660     0.0877     6.8252 C.2     
  26 C26           -2.5538    -0.1199     8.1792 C.ar    
  27 C27           -2.4042    -1.5666     8.4032 C.ar    
  28 N28           -2.1538    -2.1114     7.2257 N.2     
  29 C29           -2.8355     0.7127     9.2831 C.ar    
  30 C30           -2.9615     0.1658    10.5184 C.ar    
  31 C31           -2.8192    -1.2071    10.7316 C.ar    
  32 C32           -2.5483    -2.0644     9.7155 C.ar    
  33 C33           -2.8695    -2.1489    -1.3996 C.3     
  34 C34           -1.9619    -0.0372    -2.3053 C.3     
  35 C35           -3.0894    -0.5545    -3.2327 C.3     
  36 C36           -3.9230    -1.4551    -2.2877 C.3     
  37 H37           -0.9925     1.9039     0.0156 H       
  38 H38            1.2134    -1.7478    -0.0156 H       
  39 H39            3.3244    -0.4856    -0.0259 H       
  40 H40            1.1069     3.1852     0.0084 H       
  41 H41            2.7457     4.0151    -0.0008 H       
  42 H42            5.4324     4.0483     0.8694 H       
  43 H43            5.4192     4.0565    -0.9105 H       
  44 H44            3.9566     6.0588    -0.8904 H       
  45 H45            3.9698     6.0505     0.8895 H       
  46 H46            6.6559     8.3800    -0.0097 H       
  47 H47           -2.1110    -0.1393     0.3709 H       
  48 H48           -0.7726    -1.7908    -1.8233 H       
  49 H49           -1.2179    -3.7866     2.6940 H       
  50 H50           -1.6416    -3.4286     5.0911 H       
  51 H51           -2.0684     0.7676     4.3870 H       
  52 H52           -1.6386     0.4083     1.9912 H       
  53 H53           -2.4069     1.0394     6.3163 H       
  54 H54           -2.9497     1.7778     9.1457 H       
  55 H55           -3.1772     0.8089    11.3588 H       
  56 H56           -2.9274    -1.5970    11.7329 H       
  57 H57           -2.4435    -3.1216     9.9101 H       
  58 H58           -2.6248    -3.1297    -1.8075 H       
  59 H59           -3.2474    -2.2509    -0.3823 H       
  60 H60           -2.3181     0.7965    -1.7002 H       
  61 H61           -1.0921     0.2598    -2.8913 H       
  62 H62           -3.6913     0.2732    -3.6079 H       
  63 H63           -2.6757    -1.1369    -4.0560 H       
  64 H64           -4.4844    -2.1930    -2.8608 H       
  65 H65           -4.5959    -0.8505    -1.6797 H       
@<TRIPOS>BOND
   1    1    2 ar
   2    1    6 ar
   3    1   37 1
   4    2    3 ar
   5    2   15 1
   6    3    4 ar
   7    3   38 1
   8    4    5 ar
   9    4   39 1
  10    5    6 ar
  11    5    7 1
  12    6   40 1
  13    7    8 am
  14    7    9 2
  15    8   10 1
  16    8   41 1
  17   10   11 1
  18   10   42 1
  19   10   43 1
  20   11   12 1
  21   11   44 1
  22   11   45 1
  23   12   13 1
  24   12   14 2
  25   13   46 1
  26   15   16 1
  27   15   17 1
  28   15   47 1
  29   16   33 1
  30   16   34 1
  31   16   48 1
  32   17   18 1
  33   18   19 ar
  34   18   23 ar
  35   19   20 ar
  36   19   49 1
  37   20   21 ar
  38   20   50 1
  39   21   22 ar
  40   21   24 1
  41   22   23 ar
  42   22   51 1
  43   23   52 1
  44   24   25 1
  45   24   28 1
  46   25   26 2
  47   25   53 1
  48   26   27 ar
  49   26   29 ar
  50   27   28 2
  51   27   32 ar
  52   29   30 ar
  53   29   54 1
  54   30   31 ar
  55   30   55 1
  56   31   32 ar
  57   31   56 1
  58   32   57 1
  59   33   36 1
  60   33   58 1
  61   33   59 1
  62   34   35 1
  63   34   60 1
  64   34   61 1
  65   35   36 1
  66   35   62 1
  67   35   63 1
  68   36   64 1
  69   36   65 1

#	End of record

