#	Name: ASD01230674
#	Creating user name:	WinNT
#	Creation time:	15. 06. 2019 19:14

#	Modifying user name:	WinNT
#	Modification time:	15. 06. 2019 19:14

#	Program:	/corina/corina34_cracker 3.40 0067  02.08.2006

@<TRIPOS>MOLECULE
ASD01230674
  47   50    0    0    0
SMALL
NO_CHARGES


@<TRIPOS>ATOM
   1 C1             0.3996     0.8155    -0.5345 C.2     
   2 C2             0.4635    -0.4687    -0.0391 C.2     
   3 C3            -0.6483    -1.3098    -0.1858 C.2     
   4 C4            -1.7585    -0.8794    -0.8091 C.2     
   5 N5            -1.8707     0.3832    -1.3360 N.pl3   
   6 C6            -0.8410     1.2702    -1.1978 C.2     
   7 C7            -3.1239     0.6867    -2.0321 C.3     
   8 C8            -3.5319     2.1434    -1.7937 C.3     
   9 S9            -2.1553     3.1866    -2.3694 S.o2    
  10 N10           -0.8494     2.5158    -1.6066 N.am    
  11 C11            1.5560     1.7300    -0.3990 C.ar    
  12 C12            2.7540     1.4445    -1.0550 C.ar    
  13 C13            3.8289     2.2984    -0.9264 C.ar    
  14 C14            3.7202     3.4414    -0.1452 C.ar    
  15 C15            2.5295     3.7287     0.5091 C.ar    
  16 C16            1.4487     2.8824     0.3805 C.ar    
  17 O17            4.7817     4.2804    -0.0204 O.3     
  18 C18            4.9194     5.2754    -0.9355 C.ar    
  19 C19            6.0461     6.0848    -0.9177 C.ar    
  20 C20            6.1837     7.0957    -1.8493 C.ar    
  21 C21            5.1997     7.3014    -2.7983 C.ar    
  22 C22            4.0756     6.4961    -2.8182 C.ar    
  23 C23            3.9360     5.4801    -1.8931 C.ar    
  24 C24            5.3519     8.4056    -3.8126 C.3     
  25 O25           -1.9121     2.9816    -3.7543 O.2     
  26 O26           -2.2508     4.4946    -1.8223 O.2     
  27 F27            6.0122     7.9124    -4.9432 F       
  28 F28            4.0877     8.8787    -4.1802 F       
  29 F29            6.0973     9.4505    -3.2561 F       
  30 C30            7.1187     5.8617     0.1171 C.3     
  31 F31            8.1452     6.7943    -0.0668 F       
  32 F32            6.5723     6.0156     1.3957 F       
  33 F33            7.6344     4.5682    -0.0171 F       
  34 H34            1.3568    -0.8221     0.4544 H       
  35 H35           -0.6121    -2.3154     0.2062 H       
  36 H36           -2.5966    -1.5546    -0.8994 H       
  37 H37           -2.9907     0.5208    -3.1011 H       
  38 H38           -3.9095     0.0280    -1.6618 H       
  39 H39           -4.4344     2.3737    -2.3598 H       
  40 H40           -3.7060     2.3113    -0.7309 H       
  41 H41            2.8394     0.5556    -1.6624 H       
  42 H42            4.7565     2.0779    -1.4335 H       
  43 H43            2.4487     4.6183     1.1161 H       
  44 H44            0.5230     3.1064     0.8896 H       
  45 H45            7.0606     7.7260    -1.8359 H       
  46 H46            3.3081     6.6591    -3.5604 H       
  47 H47            3.0582     4.8512    -1.9093 H       
@<TRIPOS>BOND
   1    1    2 2
   2    1   11 1
   3    1    6 1
   4    2    3 1
   5    2   34 1
   6    3    4 2
   7    3   35 1
   8    4    5 1
   9    4   36 1
  10    5    6 1
  11    5    7 1
  12    6   10 2
  13    7    8 1
  14    7   37 1
  15    7   38 1
  16    8    9 1
  17    8   39 1
  18    8   40 1
  19    9   10 am
  20    9   25 2
  21    9   26 2
  22   11   12 ar
  23   11   16 ar
  24   12   13 ar
  25   12   41 1
  26   13   14 ar
  27   13   42 1
  28   14   15 ar
  29   14   17 1
  30   15   16 ar
  31   15   43 1
  32   16   44 1
  33   17   18 1
  34   18   19 ar
  35   18   23 ar
  36   19   20 ar
  37   19   30 1
  38   20   21 ar
  39   20   45 1
  40   21   22 ar
  41   21   24 1
  42   22   23 ar
  43   22   46 1
  44   23   47 1
  45   24   27 1
  46   24   28 1
  47   24   29 1
  48   30   31 1
  49   30   32 1
  50   30   33 1

#	End of record

