#	Name: ASD01148903
#	Creating user name:	WinNT
#	Creation time:	15. 06. 2019 19:03

#	Modifying user name:	WinNT
#	Modification time:	15. 06. 2019 19:03

#	Program:	/corina/corina34_cracker 3.40 0067  02.08.2006

@<TRIPOS>MOLECULE
ASD01148903
  41   43    0    0    0
SMALL
NO_CHARGES


@<TRIPOS>ATOM
   1 C1             0.7158     2.4018    -0.6080 C.ar    
   2 C2             0.4111     1.0562    -0.5141 C.ar    
   3 C3             1.4223     0.1257    -0.3759 C.ar    
   4 C4             2.7460     0.5425    -0.3312 C.ar    
   5 C5             3.0487     1.8942    -0.4257 C.ar    
   6 C6             2.0331     2.8200    -0.5638 C.ar    
   7 S7            -0.5767     3.5852    -0.7916 S.o2    
   8 O8             0.0096     4.7289    -1.3977 O.2     
   9 O9            -1.6815     2.8891    -1.3518 O.2     
  10 N10           -1.0381     4.0472     0.7303 N.am    
  11 N11            3.7742    -0.3991    -0.1906 N.pl3   
  12 C12            4.1292    -1.3363    -1.1177 C.2     
  13 C13            5.1587    -2.0579    -0.6241 C.2     
  14 C14            5.4588    -1.5570     0.6535 C.2     
  15 C15            4.5979    -0.5303     0.9007 C.2     
  16 C16            4.5554     0.2939     2.1272 C.ar    
  17 C17            5.7007     0.9633     2.5619 C.ar    
  18 C18            4.4760     1.8376     4.4249 C.ar    
  19 C19            3.3688     0.4106     2.8524 C.ar    
  20 C20            5.6543     1.7307     3.7072 C.ar    
  21 C21            3.3360     1.1814     3.9964 C.ar    
  22 C22            6.9849     0.8476     1.7820 C.3     
  23 C23            3.4812    -1.5330    -2.4639 C.3     
  24 H24           -0.6188     0.7327    -0.5486 H       
  25 H25            1.1837    -0.9250    -0.3023 H       
  26 H26            4.0774     2.2215    -0.3909 H       
  27 H27            2.2680     3.8715    -0.6377 H       
  28 H28           -1.3849     4.9403     0.8818 H       
  29 H29           -0.9615     3.4247     1.4702 H       
  30 H30            5.6610    -2.8740    -1.1223 H       
  31 H31            6.2325    -1.9164     1.3158 H       
  32 H32            4.4451     2.4394     5.3211 H       
  33 H33            2.4781    -0.1009     2.5188 H       
  34 H34            6.5397     2.2488     4.0448 H       
  35 H35            2.4196     1.2686     4.5612 H       
  36 H36            6.9827     1.5732     0.9686 H       
  37 H37            7.8298     1.0442     2.4419 H       
  38 H38            7.0711    -0.1583     1.3712 H       
  39 H39            3.9894    -0.9164    -3.2053 H       
  40 H40            3.5536    -2.5817    -2.7523 H       
  41 H41            2.4319    -1.2432    -2.4080 H       
@<TRIPOS>BOND
   1    1    2 ar
   2    1    6 ar
   3    1    7 1
   4    2    3 ar
   5    2   24 1
   6    3    4 ar
   7    3   25 1
   8    4    5 ar
   9    4   11 1
  10    5    6 ar
  11    5   26 1
  12    6   27 1
  13    7    8 2
  14    7    9 2
  15    7   10 am
  16   10   28 1
  17   10   29 1
  18   11   12 1
  19   11   15 1
  20   12   13 2
  21   12   23 1
  22   13   14 1
  23   13   30 1
  24   14   15 2
  25   14   31 1
  26   15   16 1
  27   16   17 ar
  28   16   19 ar
  29   17   20 ar
  30   17   22 1
  31   18   20 ar
  32   18   21 ar
  33   18   32 1
  34   19   21 ar
  35   19   33 1
  36   20   34 1
  37   21   35 1
  38   22   36 1
  39   22   37 1
  40   22   38 1
  41   23   39 1
  42   23   40 1
  43   23   41 1

#	End of record

