#	Name: ASD01883320
#	Creating user name:	WinNT
#	Creation time:	15. 06. 2019 19:46

#	Modifying user name:	WinNT
#	Modification time:	15. 06. 2019 19:46

#	Program:	/corina/corina34_cracker 3.40 0067  02.08.2006

@<TRIPOS>MOLECULE
ASD01883320
  39   40    0    0    0
SMALL
NO_CHARGES


@<TRIPOS>ATOM
   1 N1            -0.0312     1.3684     0.0002 N.am    
   2 C2            -0.0046     0.0245    -0.0721 C.2     
   3 C3            -1.2172    -0.7066    -0.0632 C.2     
   4 C4            -2.4276    -0.0035     0.0216 C.2     
   5 C5            -2.3915     1.3987     0.0945 C.2     
   6 C6            -1.2043     2.0462     0.0878 C.2     
   7 O7             1.0617    -0.5623    -0.1455 O.2     
   8 C8            -1.2078    -2.1365    -0.1398 C.1     
   9 N9            -1.2003    -3.2708    -0.2006 N.1     
  10 O10           -3.6078    -0.6634     0.0325 O.3     
  11 C11           -4.3539    -0.6173     1.1673 C.ar    
  12 C12            1.2301     2.1135    -0.0099 C.3     
  13 C13            1.6127     2.4492    -1.4527 C.3     
  14 C14            2.9300     3.2274    -1.4632 C.3     
  15 C15            4.0560     2.3310    -0.9440 C.3     
  16 C16           -5.6215    -1.1814     1.1890 C.ar    
  17 C17           -6.3777    -1.1337     2.3439 C.ar    
  18 C18           -5.8726    -0.5245     3.4778 C.ar    
  19 C19           -4.6100     0.0388     3.4587 C.ar    
  20 C20           -3.8473    -0.0112     2.3080 C.ar    
  21 C21            3.2490     3.6708    -2.8924 C.3     
  22 H22           -3.3120     1.9598     0.1600 H       
  23 H23           -1.1894     3.1246     0.1443 H       
  24 H24            1.1117     3.0359     0.5586 H       
  25 H25            2.0145     1.5063     0.4421 H       
  26 H26            1.7311     1.5267    -2.0212 H       
  27 H27            0.8284     3.0564    -1.9047 H       
  28 H28            2.8390     4.1044    -0.8224 H       
  29 H29            4.1470     1.4540    -1.5848 H       
  30 H30            4.9944     2.8854    -0.9515 H       
  31 H31            3.8287     2.0151     0.0742 H       
  32 H32           -6.0166    -1.6570     0.3035 H       
  33 H33           -7.3645    -1.5722     2.3612 H       
  34 H34           -6.4655    -0.4882     4.3798 H       
  35 H35           -4.2180     0.5147     4.3455 H       
  36 H36           -2.8612     0.4288     2.2936 H       
  37 H37            2.4468     4.3094    -3.2623 H       
  38 H38            4.1875     4.2252    -2.8999 H       
  39 H39            3.3400     2.7938    -3.5332 H       
@<TRIPOS>BOND
   1    1    2 am
   2    1   12 1
   3    1    6 1
   4    2    3 1
   5    2    7 2
   6    3    4 2
   7    3    8 1
   8    4    5 1
   9    4   10 1
  10    5    6 2
  11    5   22 1
  12    6   23 1
  13    8    9 3
  14   10   11 1
  15   11   16 ar
  16   11   20 ar
  17   12   13 1
  18   12   24 1
  19   12   25 1
  20   13   14 1
  21   13   26 1
  22   13   27 1
  23   14   15 1
  24   14   21 1
  25   14   28 1
  26   15   29 1
  27   15   30 1
  28   15   31 1
  29   16   17 ar
  30   16   32 1
  31   17   18 ar
  32   17   33 1
  33   18   19 ar
  34   18   34 1
  35   19   20 ar
  36   19   35 1
  37   20   36 1
  38   21   37 1
  39   21   38 1
  40   21   39 1

#	End of record

