#	Name: ASD02030370
#	Creating user name:	WinNT
#	Creation time:	15. 06. 2019 20:15

#	Modifying user name:	WinNT
#	Modification time:	15. 06. 2019 20:15

#	Program:	/corina/corina34_cracker 3.40 0067  02.08.2006

@<TRIPOS>MOLECULE
ASD02030370
  61   65    0    0    0
SMALL
NO_CHARGES


@<TRIPOS>ATOM
   1 C1             0.1602     1.2319    -0.2874 C.2     
   2 C2             0.2528    -0.1233    -0.3587 C.2     
   3 C3             1.4844    -0.7699    -0.2874 C.2     
   4 C4             2.6504    -0.0810    -0.1432 C.2     
   5 C5             2.6309     1.3228    -0.0625 C.2     
   6 C6             1.3328     2.0021    -0.1382 C.2     
   7 C7             1.2668     3.3962    -0.0618 C.2     
   8 N8             3.7766     1.9978     0.0786 N.2     
   9 C9             3.8424     3.3123     0.1616 C.2     
  10 C10            2.5788     4.1398     0.0986 C.3     
  11 C11            0.0292     4.0841    -0.1316 C.ar    
  12 C12           -0.7302     4.0552    -1.3129 C.ar    
  13 C13           -1.9312     4.7264    -1.3701 C.ar    
  14 C14           -2.3912     5.4284    -0.2678 C.ar    
  15 C15           -1.6499     5.4632     0.9021 C.ar    
  16 C16           -0.4488     4.7943     0.9819 C.ar    
  17 C17            2.7114     5.0986    -1.0565 C.2     
  18 N18            1.9122     5.1717    -2.0405 N.2     
  19 N19            2.2458     6.1405    -2.9848 N.am    
  20 C20            3.4755     6.8220    -2.5475 C.3     
  21 C21            3.8124     6.1228    -1.2149 C.3     
  22 C22            3.2187     8.2898    -2.3226 C.ar    
  23 C23            4.1725     9.2219    -2.6864 C.ar    
  24 C24            3.9373    10.5683    -2.4807 C.ar    
  25 C25            2.7471    10.9830    -1.9106 C.ar    
  26 C26            1.7930    10.0500    -1.5467 C.ar    
  27 C27            2.0269     8.7042    -1.7576 C.ar    
  28 C28           -1.0026    -0.9417    -0.5174 C.3     
  29 O29            4.9217     3.8599     0.2894 O.2     
  30 C30            1.5571     6.4091    -4.1117 C.2     
  31 O31            1.9420     7.2783    -4.8651 O.2     
  32 C32            0.3087     5.6296    -4.4357 C.3     
  33 C33           -0.2751     6.1286    -5.7590 C.3     
  34 C34           -1.5235     5.3491    -6.0830 C.2     
  35 O35           -2.2094     5.6167    -7.2054 O.3     
  36 O36           -1.9069     4.4833    -5.3326 O.2     
  37 Br37           2.4249    12.8248    -1.6283 Br      
  38 H38            2.5192     4.7300     1.0130 H       
  39 H39           -0.8036     1.7152    -0.3490 H       
  40 H40            1.5156    -1.8477    -0.3479 H       
  41 H41            3.5891    -0.6124    -0.0904 H       
  42 H42           -0.3732     3.5089    -2.1734 H       
  43 H43           -2.5165     4.7058    -2.2776 H       
  44 H44           -3.3340     5.9525    -0.3210 H       
  45 H45           -2.0172     6.0133     1.7558 H       
  46 H46            0.1257     4.8192     1.8961 H       
  47 H47            4.2747     6.6773    -3.2744 H       
  48 H48            3.7932     6.8359    -0.3908 H       
  49 H49            4.7844     5.6335    -1.2765 H       
  50 H50            5.1019     8.8980    -3.1312 H       
  51 H51            4.6827    11.2964    -2.7647 H       
  52 H52            0.8638    10.3733    -1.1012 H       
  53 H53            1.2803     7.9759    -1.4773 H       
  54 H54           -1.2150    -1.0791    -1.5777 H       
  55 H55           -0.8642    -1.9145    -0.0456 H       
  56 H56           -1.8365    -0.4235    -0.0440 H       
  57 H57            0.5537     4.5711    -4.5229 H       
  58 H58           -0.4233     5.7688    -3.6402 H       
  59 H59           -0.5201     7.1871    -5.6719 H       
  60 H60            0.4569     5.9894    -6.5545 H       
  61 H61           -3.0037     5.0904    -7.3704 H       
@<TRIPOS>BOND
   1    1    2 2
   2    1    6 1
   3    1   39 1
   4    2    3 1
   5    2   28 1
   6    3    4 2
   7    3   40 1
   8    4    5 1
   9    4   41 1
  10    5    8 2
  11    5    6 1
  12    6    7 2
  13    7   10 1
  14    7   11 1
  15    8    9 1
  16    9   10 1
  17    9   29 2
  18   10   17 1
  19   10   38 1
  20   11   12 ar
  21   11   16 ar
  22   12   13 ar
  23   12   42 1
  24   13   14 ar
  25   13   43 1
  26   14   15 ar
  27   14   44 1
  28   15   16 ar
  29   15   45 1
  30   16   46 1
  31   17   18 2
  32   17   21 1
  33   18   19 1
  34   19   20 1
  35   19   30 am
  36   20   21 1
  37   20   22 1
  38   20   47 1
  39   21   48 1
  40   21   49 1
  41   22   23 ar
  42   22   27 ar
  43   23   24 ar
  44   23   50 1
  45   24   25 ar
  46   24   51 1
  47   25   26 ar
  48   25   37 1
  49   26   27 ar
  50   26   52 1
  51   27   53 1
  52   28   54 1
  53   28   55 1
  54   28   56 1
  55   30   31 2
  56   30   32 1
  57   32   33 1
  58   32   57 1
  59   32   58 1
  60   33   34 1
  61   33   59 1
  62   33   60 1
  63   34   35 1
  64   34   36 2
  65   35   61 1

#	End of record

