#	Name: ASD03331987
#	Creating user name:	WinNT
#	Creation time:	15. 06. 2019 20:40

#	Modifying user name:	WinNT
#	Modification time:	15. 06. 2019 20:40

#	Program:	/corina/corina34_cracker 3.40 0067  02.08.2006

@<TRIPOS>MOLECULE
ASD03331987
  57   59    0    0    0
SMALL
NO_CHARGES


@<TRIPOS>ATOM
   1 C1            -0.1162     1.6033     1.4859 C.2     
   2 N2            -0.1385     0.2858     1.8255 N.pl3   
   3 C3             1.1344    -0.1906     1.7104 C.2     
   4 N4             1.9181     0.7927     1.3344 N.2     
   5 C5             1.1739     1.9193     1.1894 C.2     
   6 C6             1.6731     3.2447     0.7838 C.2     
   7 O7             0.9032     4.1815     0.6886 O.2     
   8 N8             2.9829     3.4192     0.5182 N.am    
   9 C9             3.4793     4.7371     0.1148 C.3     
  10 C10            3.3005     4.9093    -1.3949 C.3     
  11 C11            4.0116     3.7688    -2.1260 C.3     
  12 C12            4.9408     4.8519     0.4639 C.2     
  13 C13            1.8097     4.8840    -1.7382 C.3     
  14 C14            3.9015     6.2473    -1.8304 C.3     
  15 O15            5.5761     3.8587     0.7482 O.2     
  16 N16            5.5418     6.0582     0.4603 N.am    
  17 C17            6.9790     6.1614     0.7249 C.3     
  18 C18           -1.3249    -0.4616     2.2522 C.3     
  19 C19           -2.4797    -0.1616     1.2915 C.3     
  20 C20           -3.2325     1.0791     1.7609 C.3     
  21 N21           -2.3242     2.0407     2.3887 N.3     
  22 C22           -1.3113     2.5197     1.4365 C.3     
  23 C23           -3.0690     3.1634     2.9742 C.3     
  24 C24            1.5607    -1.5839     1.9671 C.2     
  25 C25            2.7121    -2.1719     1.5233 C.2     
  26 N26            2.7208    -3.4410     1.9740 N.pl3   
  27 N27            1.5518    -3.6522     2.7147 N.2     
  28 C28            0.8565    -2.5466     2.7197 C.2     
  29 H29            3.5968     2.6720     0.5941 H       
  30 H30            2.9188     5.5121     0.6377 H       
  31 H31            3.5835     2.8156    -1.8158 H       
  32 H32            3.8843     3.8914    -3.2016 H       
  33 H33            5.0737     3.7868    -1.8815 H       
  34 H34            1.3031     5.6965    -1.2173 H       
  35 H35            1.6824     5.0066    -2.8137 H       
  36 H36            1.3816     3.9308    -1.4280 H       
  37 H37            4.9324     6.3129    -1.4825 H       
  38 H38            3.8797     6.3186    -2.9178 H       
  39 H39            3.3204     7.0635    -1.4010 H       
  40 H40            5.0227     6.8582     0.2824 H       
  41 H41            7.5282     5.5913    -0.0243 H       
  42 H42            7.2825     7.2073     0.6802 H       
  43 H43            7.1955     5.7623     1.7159 H       
  44 H44           -1.1073    -1.5296     2.2381 H       
  45 H45           -1.6027    -0.1587     3.2618 H       
  46 H46           -2.0831     0.0119     0.2912 H       
  47 H47           -3.1614    -1.0117     1.2677 H       
  48 H48           -3.7152     1.5498     0.9044 H       
  49 H49           -3.9946     0.7836     2.4820 H       
  50 H50           -1.0066     3.5309     1.7065 H       
  51 H51           -1.7289     2.5202     0.4297 H       
  52 H52           -3.7575     2.7874     3.7310 H       
  53 H53           -2.3703     3.8626     3.4339 H       
  54 H54           -3.6317     3.6733     2.1923 H       
  55 H55            3.4760    -1.7038     0.9202 H       
  56 H56            3.4176    -4.0964     1.8129 H       
  57 H57           -0.0948    -2.3977     3.2089 H       
@<TRIPOS>BOND
   1    1    2 1
   2    1    5 2
   3    1   22 1
   4    2    3 1
   5    2   18 1
   6    3    4 2
   7    3   24 1
   8    4    5 1
   9    5    6 1
  10    6    7 2
  11    6    8 am
  12    8    9 1
  13    8   29 1
  14    9   10 1
  15    9   12 1
  16    9   30 1
  17   10   11 1
  18   10   13 1
  19   10   14 1
  20   11   31 1
  21   11   32 1
  22   11   33 1
  23   12   15 2
  24   12   16 am
  25   13   34 1
  26   13   35 1
  27   13   36 1
  28   14   37 1
  29   14   38 1
  30   14   39 1
  31   16   17 1
  32   16   40 1
  33   17   41 1
  34   17   42 1
  35   17   43 1
  36   18   19 1
  37   18   44 1
  38   18   45 1
  39   19   20 1
  40   19   46 1
  41   19   47 1
  42   20   21 1
  43   20   48 1
  44   20   49 1
  45   21   22 1
  46   21   23 1
  47   22   50 1
  48   22   51 1
  49   23   52 1
  50   23   53 1
  51   23   54 1
  52   24   25 2
  53   24   28 1
  54   25   26 1
  55   25   55 1
  56   26   27 1
  57   26   56 1
  58   27   28 2
  59   28   57 1

#	End of record

