#	Name: ASD02198829
#	Creating user name:	WinNT
#	Creation time:	15. 06. 2019 20:20

#	Modifying user name:	WinNT
#	Modification time:	15. 06. 2019 20:20

#	Program:	/corina/corina34_cracker 3.40 0067  02.08.2006

@<TRIPOS>MOLECULE
ASD02198829
  48   52    0    0    0
SMALL
NO_CHARGES


@<TRIPOS>ATOM
   1 C1            -0.0432     1.5016    -0.1151 C.2     
   2 C2            -0.0730     0.1620     0.0973 C.2     
   3 N3             1.0714    -0.5397     0.2601 N.pl3   
   4 N4             2.2359    -0.0050     0.2265 N.2     
   5 C5             2.4076     1.2842     0.0280 C.2     
   6 C6             1.2217     2.1356    -0.1606 C.2     
   7 C7             0.9799    -1.9185     0.4765 C.ar    
   8 C8             1.5794    -2.4880     1.5931 C.ar    
   9 C9             1.4889    -3.8484     1.8062 C.ar    
  10 C10            0.7987    -4.6482     0.9048 C.ar    
  11 C11            0.1992    -4.0792    -0.2117 C.ar    
  12 C12            0.2844    -2.7185    -0.4224 C.ar    
  13 C13            3.7646     1.8665    -0.0041 C.2     
  14 N14            4.3070     2.6063    -1.0171 N.pl3   
  15 N15            5.6087     2.9580    -0.6387 N.2     
  16 C16            5.8519     2.4587     0.5469 C.2     
  17 C17            4.7198     1.7711     0.9841 C.2     
  18 C18            3.6747     2.9503    -2.2186 C.ar    
  19 C19            3.8086     4.2334    -2.7327 C.ar    
  20 C20            3.1838     4.5695    -3.9177 C.ar    
  21 C21            2.4256     3.6301    -4.5921 C.ar    
  22 C22            2.2900     2.3517    -4.0824 C.ar    
  23 C23            2.9173     2.0075    -2.9011 C.ar    
  24 O24            1.3248     3.3385    -0.3487 O.2     
  25 N25            0.7074    -6.0301     1.1214 N.pl3   
  26 N26            1.2606    -6.7341     2.1989 N.2     
  27 C27            0.9640    -8.0008     2.0555 C.2     
  28 C28            0.2132    -8.1450     0.8837 C.2     
  29 C29            0.0648    -6.9189     0.3305 C.2     
  30 C30            2.3288    -1.6202     2.5711 C.3     
  31 H31           -0.9546     2.0653    -0.2497 H       
  32 H32           -1.0228    -0.3505     0.1372 H       
  33 H33            1.9552    -4.2911     2.6740 H       
  34 H34           -0.3374    -4.7016    -0.9125 H       
  35 H35           -0.1817    -2.2762    -1.2905 H       
  36 H36            6.7751     2.5652     1.0972 H       
  37 H37            4.6134     1.2521     1.9252 H       
  38 H38            4.4003     4.9677    -2.2064 H       
  39 H39            3.2872     5.5673    -4.3179 H       
  40 H40            1.9380     3.8954    -5.5185 H       
  41 H41            1.6966     1.6204    -4.6111 H       
  42 H42            2.8110     1.0090    -2.5036 H       
  43 H43            1.2500    -8.7977     2.7260 H       
  44 H44           -0.1817    -9.0707     0.4920 H       
  45 H45           -0.4662    -6.6919    -0.5821 H       
  46 H46            1.6446    -1.2690     3.3435 H       
  47 H47            3.1297    -2.1991     3.0309 H       
  48 H48            2.7540    -0.7648     2.0461 H       
@<TRIPOS>BOND
   1    1    2 2
   2    1    6 1
   3    1   31 1
   4    2    3 1
   5    2   32 1
   6    3    4 1
   7    3    7 1
   8    4    5 2
   9    5    6 1
  10    5   13 1
  11    6   24 2
  12    7    8 ar
  13    7   12 ar
  14    8    9 ar
  15    8   30 1
  16    9   10 ar
  17    9   33 1
  18   10   11 ar
  19   10   25 1
  20   11   12 ar
  21   11   34 1
  22   12   35 1
  23   13   14 1
  24   13   17 2
  25   14   15 1
  26   14   18 1
  27   15   16 2
  28   16   17 1
  29   16   36 1
  30   17   37 1
  31   18   19 ar
  32   18   23 ar
  33   19   20 ar
  34   19   38 1
  35   20   21 ar
  36   20   39 1
  37   21   22 ar
  38   21   40 1
  39   22   23 ar
  40   22   41 1
  41   23   42 1
  42   25   26 1
  43   25   29 1
  44   26   27 2
  45   27   28 1
  46   27   43 1
  47   28   29 2
  48   28   44 1
  49   29   45 1
  50   30   46 1
  51   30   47 1
  52   30   48 1

#	End of record

