#	Name: ASD01884505
#	Creating user name:	WinNT
#	Creation time:	15. 06. 2019 19:48

#	Modifying user name:	WinNT
#	Modification time:	15. 06. 2019 19:48

#	Program:	/corina/corina34_cracker 3.40 0067  02.08.2006

@<TRIPOS>MOLECULE
ASD01884505
  37   38    0    0    0
SMALL
NO_CHARGES


@<TRIPOS>ATOM
   1 C1            -0.0164     1.3598     0.0095 C.2     
   2 C2             0.0021    -0.0041     0.0020 C.2     
   3 C3             1.2342    -0.6727    -0.0133 C.2     
   4 C4             2.3874     0.0358    -0.0205 C.2     
   5 N5             2.3670     1.3933    -0.0126 N.am    
   6 C6             1.1996     2.0643     0.0017 C.2     
   7 C7             3.6294     2.1366    -0.0197 C.3     
   8 O8             1.1975     3.2849     0.0083 O.2     
   9 C9             4.0495     2.3996    -1.4429 C.ar    
  10 C10            3.6347     3.5519    -2.0840 C.ar    
  11 C11            4.0197     3.7936    -3.3893 C.ar    
  12 C12            4.8204     2.8821    -4.0542 C.ar    
  13 C13            5.2352     1.7290    -3.4120 C.ar    
  14 C14            4.8542     1.4911    -2.1048 C.ar    
  15 Cl15           5.3039     3.1847    -5.6938 Cl      
  16 C16            1.2747    -2.1791    -0.0213 C.3     
  17 C17            1.1767    -2.6995     1.4141 C.3     
  18 C18            1.2177    -4.2290     1.4060 C.3     
  19 C19            1.1197    -4.7494     2.8414 C.3     
  20 H20           -0.9557     1.8927     0.0169 H       
  21 H21           -0.9222    -0.5627     0.0082 H       
  22 H22            3.3339    -0.4842    -0.0324 H       
  23 H23            3.4957     3.0849     0.5008 H       
  24 H24            4.3986     1.5511     0.4839 H       
  25 H25            3.0094     4.2633    -1.5650 H       
  26 H26            3.6953     4.6938    -3.8902 H       
  27 H27            5.8603     1.0170    -3.9305 H       
  28 H28            5.1780     0.5910    -1.6034 H       
  29 H29            0.4372    -2.5620    -0.6046 H       
  30 H30            2.2112    -2.5151    -0.4665 H       
  31 H31            2.0141    -2.3167     1.9974 H       
  32 H32            0.2401    -2.3636     1.8593 H       
  33 H33            0.3803    -4.6118     0.8228 H       
  34 H34            2.1542    -4.5649     0.9609 H       
  35 H35            1.1490    -5.8390     2.8357 H       
  36 H36            1.9572    -4.3665     3.4247 H       
  37 H37            0.1832    -4.4134     3.2866 H       
@<TRIPOS>BOND
   1    1    2 2
   2    1    6 1
   3    1   20 1
   4    2    3 1
   5    2   21 1
   6    3    4 2
   7    3   16 1
   8    4    5 1
   9    4   22 1
  10    5    6 am
  11    5    7 1
  12    6    8 2
  13    7    9 1
  14    7   23 1
  15    7   24 1
  16    9   10 ar
  17    9   14 ar
  18   10   11 ar
  19   10   25 1
  20   11   12 ar
  21   11   26 1
  22   12   13 ar
  23   12   15 1
  24   13   14 ar
  25   13   27 1
  26   14   28 1
  27   16   17 1
  28   16   29 1
  29   16   30 1
  30   17   18 1
  31   17   31 1
  32   17   32 1
  33   18   19 1
  34   18   33 1
  35   18   34 1
  36   19   35 1
  37   19   36 1
  38   19   37 1

#	End of record

