#	Name: ASD00841826
#	Creating user name:	WinNT
#	Creation time:	15. 06. 2019 18:43

#	Modifying user name:	WinNT
#	Modification time:	15. 06. 2019 18:43

#	Program:	/corina/corina34_cracker 3.40 0067  02.08.2006

@<TRIPOS>MOLECULE
ASD00841826
  96  101    0    0    0
SMALL
NO_CHARGES


@<TRIPOS>ATOM
   1 F1            -0.0975    -3.1557     4.7114 F       
   2 C2            -0.0140     1.3805     0.0278 C.ar    
   3 C3             0.0035    -0.0064     0.0123 C.ar    
   4 C4             1.2150    -0.6825    -0.0057 C.ar    
   5 C5             2.4003     0.0266    -0.0081 C.ar    
   6 C6             2.3802     1.4092     0.0080 C.ar    
   7 C7             1.1745     2.0852     0.0254 C.ar    
   8 C8             1.2376    -2.1893    -0.0222 C.3     
   9 C9             0.4951    -2.7176    -1.2310 C.2     
  10 N10            2.6177    -2.6807    -0.0124 N.am    
  11 C11            3.4634    -2.3342    -1.0029 C.2     
  12 N12            4.7590    -2.7005    -0.9417 N.am    
  13 O13            3.0576    -1.6913    -1.9517 O.2     
  14 C14            5.2905    -3.3763     0.2497 C.3     
  15 C15            6.5169    -2.6053     0.7481 C.3     
  16 C16            7.5240    -2.4627    -0.3953 C.3     
  17 C17            6.8889    -1.6715    -1.5411 C.3     
  18 C18            5.6654    -2.4369    -2.0677 C.3     
  19 N19            8.7158    -1.7527     0.0880 N.3     
  20 C20            9.7549    -1.7008    -0.9498 C.3     
  21 C21           10.9449    -0.8868    -0.4363 C.3     
  22 N22           11.4628    -1.5034     0.7931 N.3     
  23 C23           10.4237    -1.5553     1.8309 C.3     
  24 C24            9.2337    -2.3693     1.3174 C.3     
  25 C25           12.6546    -0.7934     1.2764 C.3     
  26 O26            0.7752    -2.5151    -2.3937 O.2     
  27 N27           -0.5321    -3.4534    -0.7741 N.am    
  28 C28            0.4669    -2.7433     1.1541 C.ar    
  29 C29           -0.5772    -3.4889     0.6211 C.ar    
  30 C30            0.6301    -2.6296     2.5165 C.ar    
  31 C31           -0.2542    -3.2641     3.3739 C.ar    
  32 C32           -1.3004    -4.0113     2.8542 C.ar    
  33 C33           -1.4637    -4.1250     1.4869 C.ar    
  34 F34           -2.1637    -4.6308     3.6884 F       
  35 C35           -0.9838    -5.8421    -2.0645 C.ar    
  36 C36            0.1951    -5.9975    -2.7788 C.ar    
  37 C37           -1.6558    -6.9532    -1.5925 C.ar    
  38 C38           -1.1540    -8.2190    -1.8312 C.ar    
  39 C39            0.0211    -8.3767    -2.5430 C.ar    
  40 C40            0.6964    -7.2691    -3.0174 C.ar    
  41 H41            0.4111    -9.3666    -2.7282 H       
  42 O42            0.8577    -4.9062    -3.2445 O.3     
  43 C43            2.0650    -5.1417    -3.9718 C.3     
  44 C44            2.6642    -3.8046    -4.4121 C.3     
  45 C45           13.0167    -1.2979     2.6747 C.3     
  46 C46           14.2579    -0.5584     3.1781 C.3     
  47 O47           -1.1641    -0.7019     0.0150 O.3     
  48 C48           -3.5735    -0.8885     0.0347 C.3     
  49 C49           -2.3729     0.0599     0.0344 C.3     
  50 S50           -1.6198    -4.2287    -1.7530 S.o2    
  51 O51           -2.7999    -4.4046    -0.9812 O.2     
  52 O52           -1.6001    -3.5425    -2.9972 O.2     
  53 H53           -0.9557     1.9091     0.0373 H       
  54 H54            3.3436    -0.4992    -0.0221 H       
  55 H55            3.3081     1.9619     0.0068 H       
  56 H56            1.1614     3.1651     0.0379 H       
  57 H57            2.9228    -3.2554     0.7070 H       
  58 H58            4.5289    -3.3950     1.0294 H       
  59 H59            5.5790    -4.3957    -0.0066 H       
  60 H60            6.2110    -1.6162     1.0890 H       
  61 H61            6.9776    -3.1486     1.5731 H       
  62 H62            7.8107    -3.4519    -0.7522 H       
  63 H63            6.5796    -0.6912    -1.1787 H       
  64 H64            7.6145    -1.5502    -2.3454 H       
  65 H65            5.9872    -3.3785    -2.5128 H       
  66 H66            5.1512    -1.8336    -2.8157 H       
  67 H67           10.0822    -2.7130    -1.1877 H       
  68 H68            9.3510    -1.2290    -1.8456 H       
  69 H69           11.7288    -0.8714    -1.1934 H       
  70 H70           10.6236     0.1329    -0.2242 H       
  71 H71           10.8276    -2.0271     2.7267 H       
  72 H72           10.0964    -0.5431     2.0688 H       
  73 H73            8.4498    -2.3848     2.0745 H       
  74 H74            9.5551    -3.3890     1.1053 H       
  75 H75           13.4871    -0.9767     0.5972 H       
  76 H76           12.4484     0.2761     1.3181 H       
  77 H77            1.4467    -2.0468     2.9164 H       
  78 H78           -2.2809    -4.7082     1.0886 H       
  79 H79           -2.5736    -6.8327    -1.0362 H       
  80 H80           -1.6804    -9.0863    -1.4608 H       
  81 H81            1.6137    -7.3928    -3.5739 H       
  82 H82            2.7766    -5.6665    -3.3345 H       
  83 H83            1.8472    -5.7491    -4.8503 H       
  84 H84            1.9526    -3.2797    -5.0494 H       
  85 H85            2.8819    -3.1972    -3.5336 H       
  86 H86            3.5851    -3.9842    -4.9669 H       
  87 H87           12.1841    -1.1146     3.3540 H       
  88 H88           13.2228    -2.3674     2.6330 H       
  89 H89           15.0904    -0.7418     2.4989 H       
  90 H90           14.0517     0.5111     3.2198 H       
  91 H91           14.5159    -0.9178     4.1743 H       
  92 H92           -4.4956    -0.3074     0.0495 H       
  93 H93           -3.5482    -1.5070    -0.8625 H       
  94 H94           -3.5321    -1.5268     0.9173 H       
  95 H95           -2.3983     0.6784     0.9316 H       
  96 H96           -2.4143     0.6982    -0.8482 H       
@<TRIPOS>BOND
   1    1   31 1
   2    2    3 ar
   3    2    7 ar
   4    2   53 1
   5    3    4 ar
   6    3   47 1
   7    4    5 ar
   8    4    8 1
   9    5    6 ar
  10    5   54 1
  11    6    7 ar
  12    6   55 1
  13    7   56 1
  14    8    9 1
  15    8   10 1
  16    8   28 1
  17    9   26 2
  18    9   27 am
  19   10   11 am
  20   10   57 1
  21   11   12 am
  22   11   13 2
  23   12   14 1
  24   12   18 1
  25   14   15 1
  26   14   58 1
  27   14   59 1
  28   15   16 1
  29   15   60 1
  30   15   61 1
  31   16   17 1
  32   16   19 1
  33   16   62 1
  34   17   18 1
  35   17   63 1
  36   17   64 1
  37   18   65 1
  38   18   66 1
  39   19   20 1
  40   19   24 1
  41   20   21 1
  42   20   67 1
  43   20   68 1
  44   21   22 1
  45   21   69 1
  46   21   70 1
  47   22   23 1
  48   22   25 1
  49   23   24 1
  50   23   71 1
  51   23   72 1
  52   24   73 1
  53   24   74 1
  54   25   45 1
  55   25   75 1
  56   25   76 1
  57   27   50 am
  58   27   29 1
  59   28   29 ar
  60   28   30 ar
  61   29   33 ar
  62   30   31 ar
  63   30   77 1
  64   31   32 ar
  65   32   33 ar
  66   32   34 1
  67   33   78 1
  68   35   36 ar
  69   35   37 ar
  70   35   50 1
  71   36   42 1
  72   36   40 ar
  73   37   38 ar
  74   37   79 1
  75   38   39 ar
  76   38   80 1
  77   39   40 ar
  78   39   41 1
  79   40   81 1
  80   42   43 1
  81   43   44 1
  82   43   82 1
  83   43   83 1
  84   44   84 1
  85   44   85 1
  86   44   86 1
  87   45   46 1
  88   45   87 1
  89   45   88 1
  90   46   89 1
  91   46   90 1
  92   46   91 1
  93   47   49 1
  94   48   49 1
  95   48   92 1
  96   48   93 1
  97   48   94 1
  98   49   95 1
  99   49   96 1
 100   50   51 2
 101   50   52 2

#	End of record

