#	Name: ASD02038339
#	Creating user name:	WinNT
#	Creation time:	15. 06. 2019 20:16

#	Modifying user name:	WinNT
#	Modification time:	15. 06. 2019 20:16

#	Program:	/corina/corina34_cracker 3.40 0067  02.08.2006

@<TRIPOS>MOLECULE
ASD02038339
  58   61    0    0    0
SMALL
NO_CHARGES


@<TRIPOS>ATOM
   1 C1            -0.0187     1.5261     0.0104 C.3     
   2 C2             0.0021    -0.0041     0.0020 C.3     
   3 N3             0.7064    -0.4787    -1.1959 N.3     
   4 C4             0.6260    -1.9412    -1.3090 C.3     
   5 C5             1.5690    -2.4197    -2.4148 C.3     
   6 C6             1.4853    -3.9429    -2.5326 C.3     
   7 O7             2.4492    -4.4008    -3.4830 O.3     
   8 C8             2.5063    -5.7405    -3.7076 C.ar    
   9 C9             3.4159    -6.2467    -4.6140 C.ar    
  10 C10            1.6504    -6.5961    -3.0176 C.ar    
  11 C11            1.6948    -7.9558    -3.2316 C.ar    
  12 C12            2.6004    -8.4864    -4.1446 C.ar    
  13 C13            3.4702    -7.6261    -4.8404 C.ar    
  14 C14            2.1034    -0.0262    -1.2048 C.3     
  15 C15            2.1454     1.5033    -1.2324 C.3     
  16 C16            1.4196     2.0513    -0.0005 C.3     
  17 C17            1.4052     3.5803    -0.0535 C.3     
  18 C18            1.4000     4.3956     2.3130 C.ar    
  19 C19            0.6907     4.1183     1.1593 C.ar    
  20 N20            2.6600    -9.8461    -4.3735 N.am    
  21 C21            3.5342   -10.3614    -5.2554 C.2     
  22 C22            4.4241    -9.5414    -5.9815 C.2     
  23 C23            4.4180    -8.1978    -5.7988 C.2     
  24 O24            3.5592   -11.5673    -5.4318 O.2     
  25 O25            1.1879    -1.8243    -3.6566 O.3     
  26 O26            2.0946     1.6196     1.1828 O.3     
  27 C27            0.7446     4.8892     3.4255 C.ar    
  28 C28           -0.6201     5.1055     3.3844 C.ar    
  29 C29           -1.3293     4.8286     2.2306 C.ar    
  30 C30           -0.6739     4.3351     1.1181 C.ar    
  31 H31           -0.5449     1.8878    -0.8730 H       
  32 H32           -0.5279     1.8782     0.9076 H       
  33 H33            0.5163    -0.3652     0.8927 H       
  34 H34           -1.0206    -0.3811    -0.0047 H       
  35 H35            0.9167    -2.3954    -0.3618 H       
  36 H36           -0.3961    -2.2311    -1.5525 H       
  37 H37            2.5911    -2.1298    -2.1713 H       
  38 H38            1.6895    -4.3942    -1.5617 H       
  39 H39            0.4861    -4.2274    -2.8625 H       
  40 H40            4.0811    -5.5821    -5.1451 H       
  41 H41            0.9456    -6.1892    -2.3077 H       
  42 H42            1.0271    -8.6100    -2.6906 H       
  43 H43            2.6078    -0.3873    -0.3085 H       
  44 H44            2.6069    -0.4194    -2.0879 H       
  45 H45            3.1823     1.8391    -1.2232 H       
  46 H46            1.6532     1.8646    -2.1353 H       
  47 H47            2.4294     3.9530    -0.0670 H       
  48 H48            0.8876     3.9077    -0.9552 H       
  49 H49            2.4655     4.2224     2.3466 H       
  50 H50            2.0626   -10.4387    -3.8909 H       
  51 H51            5.1149    -9.9859    -6.6826 H       
  52 H52            5.0953    -7.5629    -6.3506 H       
  53 H53            0.2877    -2.0398    -3.9363 H       
  54 H54            1.6882     1.9309     2.0032 H       
  55 H55            1.2987     5.1055     4.3269 H       
  56 H56           -1.1323     5.4904     4.2538 H       
  57 H57           -2.3955     4.9976     2.1985 H       
  58 H58           -1.2281     4.1185     0.2167 H       
@<TRIPOS>BOND
   1    1    2 1
   2    1   16 1
   3    1   31 1
   4    1   32 1
   5    2    3 1
   6    2   33 1
   7    2   34 1
   8    3    4 1
   9    3   14 1
  10    4    5 1
  11    4   35 1
  12    4   36 1
  13    5    6 1
  14    5   25 1
  15    5   37 1
  16    6    7 1
  17    6   38 1
  18    6   39 1
  19    7    8 1
  20    8    9 ar
  21    8   10 ar
  22    9   13 ar
  23    9   40 1
  24   10   11 ar
  25   10   41 1
  26   11   12 ar
  27   11   42 1
  28   12   13 ar
  29   12   20 1
  30   13   23 1
  31   14   15 1
  32   14   43 1
  33   14   44 1
  34   15   16 1
  35   15   45 1
  36   15   46 1
  37   16   17 1
  38   16   26 1
  39   17   19 1
  40   17   47 1
  41   17   48 1
  42   18   19 ar
  43   18   27 ar
  44   18   49 1
  45   19   30 ar
  46   20   21 am
  47   20   50 1
  48   21   22 1
  49   21   24 2
  50   22   23 2
  51   22   51 1
  52   23   52 1
  53   25   53 1
  54   26   54 1
  55   27   28 ar
  56   27   55 1
  57   28   29 ar
  58   28   56 1
  59   29   30 ar
  60   29   57 1
  61   30   58 1

#	End of record

