#	Name: ASD01820231
#	Creating user name:	WinNT
#	Creation time:	15. 06. 2019 19:36

#	Modifying user name:	WinNT
#	Modification time:	15. 06. 2019 19:36

#	Program:	/corina/corina34_cracker 3.40 0067  02.08.2006

@<TRIPOS>MOLECULE
ASD01820231
  31   31    0    0    0
SMALL
NO_CHARGES


@<TRIPOS>ATOM
   1 C1            -0.0178     1.4648     0.0101 C.3     
   2 N2             0.0021    -0.0041     0.0020 N.4     
   3 C3             0.7126    -0.4907     1.1921 C.3     
   4 C4             0.0236    -0.0160     2.4032 C.1     
   5 C5            -0.5259     0.3626     3.3691 C.1     
   6 C6            -1.2149     0.8373     4.5802 C.3     
   7 O7            -0.5238     0.3640     5.7379 O.3     
   8 C8            -1.0311     0.7138     6.9416 C.2     
   9 N9            -2.0721     1.4286     7.1340 N.2     
  10 O10           -2.3670     1.6241     8.5029 O.3     
  11 C11           -1.1781     1.3013     9.2534 C.3     
  12 C12           -0.4639     0.3185     8.2917 C.3     
  13 C13           -1.3761    -0.5125     0.0124 C.3     
  14 C14            0.6897    -0.4778    -1.2066 C.3     
  15 H15            1.0047     1.8421     0.0024 H       
  16 H16           -0.5450     1.8259    -0.8730 H       
  17 H17           -0.5280     1.8163     0.9069 H       
  18 H18            0.7273    -1.5806     1.1861 H       
  19 H19            1.7352    -0.1134     1.1844 H       
  20 H20           -1.2297     1.9272     4.5862 H       
  21 H21           -2.2375     0.4600     4.5879 H       
  22 H22           -0.5736     2.1910     9.4294 H       
  23 H23           -1.4306     0.8101    10.1931 H       
  24 H24           -0.7148    -0.7136     8.5365 H       
  25 H25            0.6151     0.4714     8.3131 H       
  26 H26           -1.9033    -0.1515    -0.8706 H       
  27 H27           -1.3613    -1.6024     0.0064 H       
  28 H28           -1.8863    -0.1610     0.9092 H       
  29 H29            1.7123    -0.1005    -1.2143 H       
  30 H30            0.7044    -1.5677    -1.2126 H       
  31 H31            0.1625    -0.1167    -2.0897 H       
@<TRIPOS>BOND
   1    1    2 1
   2    1   15 1
   3    1   16 1
   4    1   17 1
   5    2    3 1
   6    2   13 1
   7    2   14 1
   8    3    4 1
   9    3   18 1
  10    3   19 1
  11    4    5 3
  12    5    6 1
  13    6    7 1
  14    6   20 1
  15    6   21 1
  16    7    8 1
  17    8    9 2
  18    8   12 1
  19    9   10 1
  20   10   11 1
  21   11   12 1
  22   11   22 1
  23   11   23 1
  24   12   24 1
  25   12   25 1
  26   13   26 1
  27   13   27 1
  28   13   28 1
  29   14   29 1
  30   14   30 1
  31   14   31 1

#	End of record

