#	Name: ASD01230781
#	Creating user name:	WinNT
#	Creation time:	15. 06. 2019 19:15

#	Modifying user name:	WinNT
#	Modification time:	15. 06. 2019 19:15

#	Program:	/corina/corina34_cracker 3.40 0067  02.08.2006

@<TRIPOS>MOLECULE
ASD01230781
  34   36    0    0    0
SMALL
NO_CHARGES


@<TRIPOS>ATOM
   1 C1            -0.0166     1.3736     0.0096 C.2     
   2 C2             0.0021    -0.0041     0.0020 C.2     
   3 C3            -1.2146    -0.7002     0.0078 C.2     
   4 C4            -2.3849    -0.0394     0.0099 C.2     
   5 N5            -2.4622     1.3313     0.0002 N.pl3   
   6 C6            -1.3175     2.0758     0.0320 C.2     
   7 C7            -3.8098     1.9045    -0.0504 C.3     
   8 C8            -3.8783     3.1903     0.7787 C.3     
   9 S9            -2.6220     4.3263     0.1109 S.o2    
  10 N10           -1.2619     3.3847     0.0819 N.am    
  11 C11            1.2497     2.1409     0.0016 C.ar    
  12 O12           -2.8865     4.6254    -1.2528 O.2     
  13 O13           -2.3214     5.3524     1.0469 O.2     
  14 C14            1.9987     2.2424    -1.1712 C.ar    
  15 C15            3.1774     2.9576    -1.1749 C.ar    
  16 C16            3.6201     3.5769    -0.0135 C.ar    
  17 C17            2.8785     3.4788     1.1557 C.ar    
  18 C18            1.6945     2.7695     1.1662 C.ar    
  19 O19            4.7827     4.2805    -0.0215 O.3     
  20 C20            5.1793     4.8922     1.2075 C.3     
  21 Cl21           0.7674     2.6471     2.6288 Cl      
  22 H22            0.9399    -0.5395    -0.0085 H       
  23 H23           -1.2116    -1.7802     0.0101 H       
  24 H24           -3.3019    -0.6099     0.0193 H       
  25 H25           -4.0659     2.1301    -1.0856 H       
  26 H26           -4.5230     1.1822     0.3466 H       
  27 H27           -4.8684     3.6375     0.6895 H       
  28 H28           -3.6619     2.9702     1.8241 H       
  29 H29            1.6557     1.7609    -2.0750 H       
  30 H30            3.7575     3.0360    -2.0825 H       
  31 H31            3.2260     3.9618     2.0570 H       
  32 H32            4.4122     5.5979     1.5263 H       
  33 H33            5.3068     4.1247     1.9709 H       
  34 H34            6.1216     5.4207     1.0628 H       
@<TRIPOS>BOND
   1    1    2 2
   2    1   11 1
   3    1    6 1
   4    2    3 1
   5    2   22 1
   6    3    4 2
   7    3   23 1
   8    4    5 1
   9    4   24 1
  10    5    6 1
  11    5    7 1
  12    6   10 2
  13    7    8 1
  14    7   25 1
  15    7   26 1
  16    8    9 1
  17    8   27 1
  18    8   28 1
  19    9   10 am
  20    9   12 2
  21    9   13 2
  22   11   14 ar
  23   11   18 ar
  24   14   15 ar
  25   14   29 1
  26   15   16 ar
  27   15   30 1
  28   16   17 ar
  29   16   19 1
  30   17   18 ar
  31   17   31 1
  32   18   21 1
  33   19   20 1
  34   20   32 1
  35   20   33 1
  36   20   34 1

#	End of record

