#	Name: ASD01411233
#	Creating user name:	WinNT
#	Creation time:	15. 06. 2019 19:19

#	Modifying user name:	WinNT
#	Modification time:	15. 06. 2019 19:19

#	Program:	/corina/corina34_cracker 3.40 0067  02.08.2006

@<TRIPOS>MOLECULE
ASD01411233
  61   63    0    0    0
SMALL
NO_CHARGES


@<TRIPOS>ATOM
   1 C1             4.8650     5.6947    -4.3986 C.ar    
   2 C2             6.1529     5.5394    -4.8919 C.ar    
   3 C3             6.9573     4.5411    -4.3786 C.ar    
   4 N4             6.5161     3.7382    -3.4294 N.ar    
   5 C5             5.2950     3.8548    -2.9337 C.ar    
   6 C6             4.4316     4.8365    -3.4028 C.ar    
   7 C7             5.3730     0.6805    -1.8678 C.ar    
   8 C8             5.7176     1.9985    -1.5932 C.ar    
   9 O9             4.8822     3.0074    -1.9579 O.3     
  10 C10            6.2135    -0.3512    -1.5015 C.ar    
  11 C11            7.4107    -0.0784    -0.8546 C.ar    
  12 C12            7.7648     1.2503    -0.5749 C.ar    
  13 C13            6.9072     2.2874    -0.9497 C.ar    
  14 N14            8.2588    -1.1210    -0.4841 N.am    
  15 C15            9.0743    -1.6835    -1.3978 C.2     
  16 C16            9.1378    -1.1253    -2.7962 C.3     
  17 O17            9.7571    -2.6389    -1.0947 O.2     
  18 C18            9.8857    -2.1048    -3.7029 C.3     
  19 C19            9.8740     0.2158    -2.7771 C.3     
  20 C20           11.2937     0.0106    -2.2449 C.3     
  21 C21           12.0416    -0.9689    -3.1516 C.3     
  22 C22           11.3054    -2.3100    -3.1708 C.3     
  23 C23           13.4614    -1.1740    -2.6195 C.3     
  24 C24            8.2635    -1.6052     0.8986 C.3     
  25 C25            7.1489    -2.6372     1.0814 C.3     
  26 O26            7.4190    -3.7795     0.2663 O.3     
  27 C27            6.4944    -4.8540     0.4468 C.3     
  28 C28            3.0416     4.9655    -2.8352 C.3     
  29 F29            2.3754     6.0204    -3.4682 F       
  30 F30            2.3384     3.7750    -3.0485 F       
  31 F31            3.1204     5.2209    -1.4620 F       
  32 C32            9.0339     1.5500     0.1121 C.2     
  33 O33            9.8098     0.6522     0.3738 O.2     
  34 O34            9.3337     2.8196     0.4500 O.3     
  35 H35            4.2173     6.4703    -4.7798 H       
  36 H36            6.5220     6.1921    -5.6692 H       
  37 H37            7.9602     4.4159    -4.7594 H       
  38 H38            4.4403     0.4620    -2.3666 H       
  39 H39            5.9387    -1.3729    -1.7183 H       
  40 H40            7.1728     3.3125    -0.7378 H       
  41 H41            8.1263    -0.9791    -3.1753 H       
  42 H42            9.3612    -3.0602    -3.7165 H       
  43 H43            9.9316    -1.7011    -4.7143 H       
  44 H44            9.9199     0.6195    -3.7885 H       
  45 H45            9.3412     0.9136    -2.1311 H       
  46 H46           11.8182     0.9660    -2.2313 H       
  47 H47           11.2478    -0.3931    -1.2335 H       
  48 H48           12.0875    -0.5651    -4.1631 H       
  49 H49           11.2595    -2.7137    -2.1593 H       
  50 H50           11.8382    -3.0078    -3.8167 H       
  51 H51           13.4155    -1.5778    -1.6081 H       
  52 H52           13.9942    -1.8719    -3.2654 H       
  53 H53           13.9859    -0.2186    -2.6059 H       
  54 H54            9.2260    -2.0671     1.1185 H       
  55 H55            8.0986    -0.7683     1.5772 H       
  56 H56            7.1021    -2.9402     2.1274 H       
  57 H57            6.1955    -2.1983     0.7873 H       
  58 H58            6.4564    -5.1274     1.5012 H       
  59 H59            5.5040    -4.5405     0.1167 H       
  60 H60            6.8176    -5.7139    -0.1400 H       
  61 H61           10.1774     2.9668     0.8990 H       
@<TRIPOS>BOND
   1    1    2 ar
   2    1    6 ar
   3    1   35 1
   4    2    3 ar
   5    2   36 1
   6    3    4 ar
   7    3   37 1
   8    4    5 ar
   9    5    6 ar
  10    5    9 1
  11    6   28 1
  12    7    8 ar
  13    7   10 ar
  14    7   38 1
  15    8    9 1
  16    8   13 ar
  17   10   11 ar
  18   10   39 1
  19   11   12 ar
  20   11   14 1
  21   12   13 ar
  22   12   32 1
  23   13   40 1
  24   14   15 am
  25   14   24 1
  26   15   17 2
  27   15   16 1
  28   16   18 1
  29   16   19 1
  30   16   41 1
  31   18   22 1
  32   18   42 1
  33   18   43 1
  34   19   20 1
  35   19   44 1
  36   19   45 1
  37   20   21 1
  38   20   46 1
  39   20   47 1
  40   21   22 1
  41   21   23 1
  42   21   48 1
  43   22   49 1
  44   22   50 1
  45   23   51 1
  46   23   52 1
  47   23   53 1
  48   24   25 1
  49   24   54 1
  50   24   55 1
  51   25   26 1
  52   25   56 1
  53   25   57 1
  54   26   27 1
  55   27   58 1
  56   27   59 1
  57   27   60 1
  58   28   29 1
  59   28   30 1
  60   28   31 1
  61   32   33 2
  62   32   34 1
  63   34   61 1

#	End of record

