#	Name: ASD00841500
#	Creating user name:	WinNT
#	Creation time:	15. 06. 2019 18:42

#	Modifying user name:	WinNT
#	Modification time:	15. 06. 2019 18:42

#	Program:	/corina/corina34_cracker 3.40 0067  02.08.2006

@<TRIPOS>MOLECULE
ASD00841500
  87   92    0    0    0
SMALL
NO_CHARGES


@<TRIPOS>ATOM
   1 C1            -0.0051     1.3863     0.0370 C.ar    
   2 C2             0.0094    -0.0007     0.0190 C.ar    
   3 C3             1.2194    -0.6794    -0.0011 C.ar    
   4 C4             2.4062     0.0272    -0.0032 C.ar    
   5 C5             2.3892     1.4098     0.0152 C.ar    
   6 C6             1.1849     2.0884     0.0348 C.ar    
   7 C7             1.2387    -2.1861    -0.0202 C.3     
   8 C8             0.4941    -2.7108    -1.2293 C.2     
   9 N9             2.6177    -2.6806    -0.0122 N.am    
  10 C10            3.4635    -2.3343    -1.0027 C.2     
  11 N11            4.7591    -2.7005    -0.9414 N.am    
  12 O12            3.0577    -1.6914    -1.9517 O.2     
  13 C13            5.2904    -3.3764     0.2501 C.3     
  14 C14            6.5168    -2.6055     0.7485 C.3     
  15 C15            7.5241    -2.4629    -0.3948 C.3     
  16 C16            6.8891    -1.6717    -1.5407 C.3     
  17 C17            5.6656    -2.4371    -2.0673 C.3     
  18 C18            8.7653    -1.7235     0.1087 C.3     
  19 C19            9.4028    -2.5147     1.2541 C.3     
  20 C20           10.6771    -1.8020     1.7127 C.3     
  21 N21           11.6131    -1.6970     0.5861 N.3     
  22 C22           11.0409    -0.9011    -0.5073 C.3     
  23 C23            9.7775    -1.5870    -1.0321 C.3     
  24 C24           12.9017    -1.1427     1.0223 C.3     
  25 O25            0.7733    -2.5064    -2.3918 O.2     
  26 N26           -0.5343    -3.4452    -0.7728 N.am    
  27 C27            0.4676    -2.7405     1.1556 C.ar    
  28 C28           -0.5786    -3.4830     0.6218 C.ar    
  29 C29            0.6318    -2.6302     2.5180 C.ar    
  30 C30           -0.2526    -3.2643     3.3743 C.ar    
  31 C31           -1.3003    -4.0079     2.8546 C.ar    
  32 C32           -1.4656    -4.1189     1.4873 C.ar    
  33 Cl33          -0.0494    -3.1287     5.0931 Cl      
  34 F34           -2.1640    -4.6271     3.6888 F       
  35 C35           -0.9916    -5.8310    -2.0663 C.ar    
  36 C36           -1.3185    -6.8774    -1.2242 C.ar    
  37 C37           -0.1730    -6.0522    -3.1580 C.ar    
  38 C38            0.3186    -7.3198    -3.4077 C.ar    
  39 C39           -0.0079    -8.3661    -2.5653 C.ar    
  40 C40           -0.8265    -8.1449    -1.4736 C.ar    
  41 H41            0.3762    -9.3565    -2.7604 H       
  42 H42           -1.9580    -6.7045    -0.3712 H       
  43 C43           13.9241    -1.2785    -0.1079 C.3     
  44 S44           -1.6242    -4.2167    -1.7522 S.o2    
  45 O45           -2.8042    -4.3914    -0.9800 O.2     
  46 O46           -1.6037    -3.5288    -2.9955 O.2     
  47 O47           -1.1597    -0.6936     0.0215 O.3     
  48 C48           -3.5695    -0.8750     0.0428 C.3     
  49 C49           -2.3669     0.0708     0.0432 C.3     
  50 H50           -0.9457     1.9169     0.0481 H       
  51 H51            3.3483    -0.5006    -0.0188 H       
  52 H52            3.3183     1.9605     0.0143 H       
  53 H53            1.1742     3.1683     0.0492 H       
  54 H54            2.9221    -3.2572     0.7060 H       
  55 H55            4.5288    -3.3950     1.0296 H       
  56 H56            5.5789    -4.3958    -0.0062 H       
  57 H57            6.2109    -1.6164     1.0894 H       
  58 H58            6.9774    -3.1488     1.5736 H       
  59 H59            7.8107    -3.4521    -0.7517 H       
  60 H60            6.5797    -0.6914    -1.1782 H       
  61 H61            7.6147    -1.5504    -2.3449 H       
  62 H62            5.9874    -3.3786    -2.5124 H       
  63 H63            5.1514    -1.8337    -2.8154 H       
  64 H64            8.4802    -0.7334     0.4644 H       
  65 H65            8.7019    -2.5786     2.0865 H       
  66 H66            9.6513    -3.5184     0.9090 H       
  67 H67           10.4260    -0.8035     2.0705 H       
  68 H68           11.1411    -2.3705     2.5187 H       
  69 H69           10.7881     0.0931    -0.1390 H       
  70 H70           11.7692    -0.8153    -1.3137 H       
  71 H71           10.0318    -2.5760    -1.4132 H       
  72 H72            9.3443    -0.9880    -1.8332 H       
  73 H73           12.7774    -0.0897     1.2751 H       
  74 H74           13.2538    -1.6876     1.8982 H       
  75 H75            1.4499    -2.0499     2.9186 H       
  76 H76           -2.2843    -4.6997     1.0888 H       
  77 H77            0.0821    -5.2348    -3.8162 H       
  78 H78            0.9576    -7.4928    -4.2610 H       
  79 H79           -1.0819    -8.9624    -0.8157 H       
  80 H80           14.8802    -0.8672     0.2157 H       
  81 H81           14.0484    -2.3315    -0.3607 H       
  82 H82           13.5719    -0.7337    -0.9838 H       
  83 H83           -3.5462    -1.4920    -0.8555 H       
  84 H84           -3.5288    -1.5149     0.9243 H       
  85 H85           -4.4903    -0.2919     0.0593 H       
  86 H86           -2.3902     0.6878     0.9414 H       
  87 H87           -2.4076     0.7107    -0.8383 H       
@<TRIPOS>BOND
   1    1    2 ar
   2    1    6 ar
   3    1   50 1
   4    2    3 ar
   5    2   47 1
   6    3    4 ar
   7    3    7 1
   8    4    5 ar
   9    4   51 1
  10    5    6 ar
  11    5   52 1
  12    6   53 1
  13    7    8 1
  14    7    9 1
  15    7   27 1
  16    8   25 2
  17    8   26 am
  18    9   10 am
  19    9   54 1
  20   10   11 am
  21   10   12 2
  22   11   13 1
  23   11   17 1
  24   13   14 1
  25   13   55 1
  26   13   56 1
  27   14   15 1
  28   14   57 1
  29   14   58 1
  30   15   16 1
  31   15   18 1
  32   15   59 1
  33   16   17 1
  34   16   60 1
  35   16   61 1
  36   17   62 1
  37   17   63 1
  38   18   19 1
  39   18   23 1
  40   18   64 1
  41   19   20 1
  42   19   65 1
  43   19   66 1
  44   20   21 1
  45   20   67 1
  46   20   68 1
  47   21   22 1
  48   21   24 1
  49   22   23 1
  50   22   69 1
  51   22   70 1
  52   23   71 1
  53   23   72 1
  54   24   43 1
  55   24   73 1
  56   24   74 1
  57   26   44 am
  58   26   28 1
  59   27   28 ar
  60   27   29 ar
  61   28   32 ar
  62   29   30 ar
  63   29   75 1
  64   30   31 ar
  65   30   33 1
  66   31   32 ar
  67   31   34 1
  68   32   76 1
  69   35   36 ar
  70   35   37 ar
  71   35   44 1
  72   36   42 1
  73   36   40 ar
  74   37   38 ar
  75   37   77 1
  76   38   39 ar
  77   38   78 1
  78   39   40 ar
  79   39   41 1
  80   40   79 1
  81   43   80 1
  82   43   81 1
  83   43   82 1
  84   44   45 2
  85   44   46 2
  86   47   49 1
  87   48   49 1
  88   48   83 1
  89   48   84 1
  90   48   85 1
  91   49   86 1
  92   49   87 1

#	End of record

