#	Name: ASD01911655
#	Creating user name:	WinNT
#	Creation time:	15. 06. 2019 19:58

#	Modifying user name:	WinNT
#	Modification time:	15. 06. 2019 19:58

#	Program:	/corina/corina34_cracker 3.40 0067  02.08.2006

@<TRIPOS>MOLECULE
ASD01911655
  30   31    0    0    0
SMALL
NO_CHARGES


@<TRIPOS>ATOM
   1 N1             0.1126     1.4413    -0.5000 N.am    
   2 C2            -0.1507     0.1829    -0.0956 C.2     
   3 C3            -1.5292    -0.3133    -0.0957 C.2     
   4 C4            -1.9162    -1.6139    -0.2756 C.2     
   5 S5            -2.9801     0.6585     0.1435 S.3     
   6 C6            -3.9737    -0.7854    -0.0294 C.2     
   7 N7            -3.2015    -1.8233    -0.2357 N.2     
   8 C8            -5.4031    -0.8202     0.0483 C.1     
   9 C9            -6.5751    -0.8487     0.1119 C.1     
  10 C10           -8.0045    -0.8835     0.1896 C.ar    
  11 C11           -8.6873    -2.0940     0.0359 C.ar    
  12 C12          -10.0639    -2.1194     0.1125 C.ar    
  13 C13          -10.7696    -0.9509     0.3403 C.ar    
  14 C14          -10.1009     0.2511     0.4934 C.ar    
  15 C15           -8.7242     0.2919     0.4252 C.ar    
  16 O16            0.7568    -0.5413     0.2697 O.2     
  17 C17            1.4673     1.9839    -0.3709 C.3     
  18 C18           -0.9545     2.2645    -1.0743 C.3     
  19 H19           -1.2058    -2.4107    -0.4395 H       
  20 H20           -8.1380    -3.0065    -0.1426 H       
  21 H21          -10.5928    -3.0536    -0.0060 H       
  22 H22          -11.8477    -0.9770     0.3986 H       
  23 H23          -10.6585     1.1589     0.6706 H       
  24 H24           -8.2038     1.2306     0.5449 H       
  25 H25            2.0328     1.7688    -1.2775 H       
  26 H26            1.4141     3.0626    -0.2232 H       
  27 H27            1.9629     1.5241     0.4842 H       
  28 H28           -1.8548     1.6615    -1.1926 H       
  29 H29           -1.1636     3.1033    -0.4103 H       
  30 H30           -0.6391     2.6412    -2.0473 H       
@<TRIPOS>BOND
   1    1    2 am
   2    1   17 1
   3    1   18 1
   4    2    3 1
   5    2   16 2
   6    3    4 2
   7    3    5 1
   8    4    7 1
   9    4   19 1
  10    5    6 1
  11    6    7 2
  12    6    8 1
  13    8    9 3
  14    9   10 1
  15   10   11 ar
  16   10   15 ar
  17   11   12 ar
  18   11   20 1
  19   12   13 ar
  20   12   21 1
  21   13   14 ar
  22   13   22 1
  23   14   15 ar
  24   14   23 1
  25   15   24 1
  26   17   25 1
  27   17   26 1
  28   17   27 1
  29   18   28 1
  30   18   29 1
  31   18   30 1

#	End of record

