#	Name: ASD08390052
#	Creating user name:	WinNT
#	Creation time:	15. 06. 2019 21:19

#	Modifying user name:	WinNT
#	Modification time:	15. 06. 2019 21:19

#	Program:	/corina/corina34_cracker 3.40 0067  02.08.2006

@<TRIPOS>MOLECULE
ASD08390052
  53   56    0    0    0
SMALL
NO_CHARGES


@<TRIPOS>ATOM
   1 C1            -0.1004     1.4981    -0.0158 C.3     
   2 C2             0.3813     0.1138    -0.4935 C.3     
   3 N3             1.1525     2.1949     0.3202 N.pl3   
   4 C4             2.1991     1.3427     0.0740 C.2     
   5 N5             1.8440     0.1838    -0.3744 N.2     
   6 C6             3.6131     1.7183     0.3019 C.ar    
   7 C7            -0.1695    -0.9722     0.3943 C.ar    
   8 C8             1.2577     3.5027     0.8065 C.ar    
   9 C9             1.8044     4.4994     0.0088 C.ar    
  10 C10            0.8103     3.8071     2.0856 C.ar    
  11 C11            0.9100     5.0997     2.5615 C.ar    
  12 C12            1.4550     6.0921     1.7642 C.ar    
  13 C13            1.9021     5.7907     0.4888 C.ar    
  14 C14            3.9286     2.7650     1.1679 C.ar    
  15 C15            5.2482     3.1101     1.3766 C.ar    
  16 C16            6.2572     2.4205     0.7283 C.ar    
  17 C17            5.9506     1.3814    -0.1319 C.ar    
  18 C18            4.6350     1.0232    -0.3443 C.ar    
  19 F19            1.5507     7.3561     2.2315 F       
  20 C20            0.5463    -2.1395     0.5837 C.ar    
  21 C21            0.0411    -3.1357     1.3981 C.ar    
  22 C22           -1.1797    -2.9644     2.0235 C.ar    
  23 C23           -1.8951    -1.7967     1.8349 C.ar    
  24 C24           -1.3878    -0.7987     1.0239 C.ar    
  25 C25           -0.8291     2.2180    -1.1212 C.2     
  26 O26           -0.2284     2.9714    -1.8502 O.2     
  27 O27           -2.1455     2.0223    -1.2958 O.3     
  28 C28           -4.2710     2.4001    -2.4227 C.3     
  29 C29           -2.7819     2.7487    -2.3801 C.3     
  30 C30           -0.0240    -0.1209    -1.9259 C.2     
  31 O31           -1.0266    -0.7474    -2.1752 O.2     
  32 O32            0.7288     0.3661    -2.9248 O.3     
  33 H33           -0.7349     1.4015     0.8652 H       
  34 H34            2.1532     4.2648    -0.9860 H       
  35 H35            0.3845     3.0335     2.7074 H       
  36 H36            0.5622     5.3368     3.5561 H       
  37 H37            2.3269     6.5662    -0.1314 H       
  38 H38            3.1417     3.3045     1.6740 H       
  39 H39            5.4938     3.9204     2.0470 H       
  40 H40            7.2886     2.6948     0.8943 H       
  41 H41            6.7426     0.8471    -0.6354 H       
  42 H42            4.3968     0.2118    -1.0161 H       
  43 H43            1.5001    -2.2734     0.0950 H       
  44 H44            0.6001    -4.0480     1.5454 H       
  45 H45           -1.5747    -3.7430     2.6592 H       
  46 H46           -2.8490    -1.6630     2.3233 H       
  47 H47           -1.9468     0.1136     0.8766 H       
  48 H48           -4.7364     2.6778    -1.4769 H       
  49 H49           -4.7487     2.9454    -3.2366 H       
  50 H50           -4.3889     1.3287    -2.5848 H       
  51 H51           -2.6640     3.8201    -2.2180 H       
  52 H52           -2.3165     2.4710    -3.3258 H       
  53 H53            0.4284     0.1900    -3.8270 H       
@<TRIPOS>BOND
   1    1    2 1
   2    1    3 1
   3    1   25 1
   4    1   33 1
   5    2    7 1
   6    2   30 1
   7    2    5 1
   8    3    4 1
   9    3    8 1
  10    4    5 2
  11    4    6 1
  12    6   14 ar
  13    6   18 ar
  14    7   20 ar
  15    7   24 ar
  16    8    9 ar
  17    8   10 ar
  18    9   13 ar
  19    9   34 1
  20   10   11 ar
  21   10   35 1
  22   11   12 ar
  23   11   36 1
  24   12   13 ar
  25   12   19 1
  26   13   37 1
  27   14   15 ar
  28   14   38 1
  29   15   16 ar
  30   15   39 1
  31   16   17 ar
  32   16   40 1
  33   17   18 ar
  34   17   41 1
  35   18   42 1
  36   20   21 ar
  37   20   43 1
  38   21   22 ar
  39   21   44 1
  40   22   23 ar
  41   22   45 1
  42   23   24 ar
  43   23   46 1
  44   24   47 1
  45   25   26 2
  46   25   27 1
  47   27   29 1
  48   28   29 1
  49   28   48 1
  50   28   49 1
  51   28   50 1
  52   29   51 1
  53   29   52 1
  54   30   31 2
  55   30   32 1
  56   32   53 1

#	End of record

