#	Name: ASD01914428
#	Creating user name:	WinNT
#	Creation time:	15. 06. 2019 20:03

#	Modifying user name:	WinNT
#	Modification time:	15. 06. 2019 20:03

#	Program:	/corina/corina34_cracker 3.40 0067  02.08.2006

@<TRIPOS>MOLECULE
ASD01914428
  56   60    0    0    0
SMALL
NO_CHARGES


@<TRIPOS>ATOM
   1 C1            -0.0167     1.3770     0.0096 C.ar    
   2 C2             0.0021    -0.0041     0.0020 C.ar    
   3 C3             1.2144    -0.6804    -0.0132 C.ar    
   4 C4             2.4046     0.0342    -0.0208 C.ar    
   5 C5             2.3796     1.4151    -0.0132 C.ar    
   6 C6             1.1705     2.0860     0.0021 C.ar    
   7 N7             1.2366    -2.0822    -0.0205 N.pl3   
   8 C8             0.5486    -2.9098     0.8267 C.2     
   9 C9             0.8594    -4.1824     0.4671 C.2     
  10 N10            1.7154    -4.1213    -0.5732 N.2     
  11 C11            1.9402    -2.8725    -0.8732 C.2     
  12 C12            0.3482    -5.4201     1.1060 C.ar    
  13 C13            0.7517    -6.6677     0.6336 C.ar    
  14 C14            0.2751    -7.8165     1.2299 C.ar    
  15 C15           -0.6058    -7.7310     2.2992 C.ar    
  16 C16           -1.0099    -6.4899     2.7717 C.ar    
  17 C17           -0.5319    -5.3374     2.1835 C.ar    
  18 C18            2.8418    -2.3851    -1.9780 C.3     
  19 O19            0.8631    -2.5108    -3.2582 O.2     
  20 C20            2.0459    -2.2428    -3.2498 C.2     
  21 N21            2.6486    -1.8177    -4.3779 N.am    
  22 O22           -1.0741    -8.8647     2.8844 O.3     
  23 C23           -1.9774    -8.7039     3.9799 C.3     
  24 C24            1.8902    -1.6720    -5.6294 C.3     
  25 C25            1.8713    -0.1933    -6.0365 C.3     
  26 C26            3.2613     0.3709    -5.8858 C.2     
  27 C27            4.2412    -0.1967    -5.1566 C.2     
  28 C28            4.0839    -1.4809    -4.3877 C.3     
  29 N29            3.7569     1.4925    -6.4255 N.2     
  30 C30            4.9988     1.6236    -6.0465 C.2     
  31 O31            5.3225     0.5874    -5.2568 O.3     
  32 C32            5.9186     2.7534    -6.4319 C.3     
  33 H33           -0.9595     1.9037     0.0169 H       
  34 H34           -0.9255    -0.5573     0.0083 H       
  35 H35            3.3492    -0.4893    -0.0323 H       
  36 H36            3.3052     1.9715    -0.0190 H       
  37 H37            1.1534     3.1658     0.0080 H       
  38 H38           -0.1124    -2.6090     1.6260 H       
  39 H39            1.4365    -6.7349    -0.1988 H       
  40 H40            0.5874    -8.7835     0.8642 H       
  41 H41           -1.6959    -6.4266     3.6034 H       
  42 H42           -0.8466    -4.3721     2.5516 H       
  43 H43            3.2633    -1.4183    -1.7031 H       
  44 H44            3.6479    -3.1024    -2.1322 H       
  45 H45           -2.2735    -9.6840     4.3537 H       
  46 H46           -1.4867    -8.1443     4.7763 H       
  47 H47           -2.8611    -8.1605     3.6454 H       
  48 H48            2.3659    -2.2600    -6.4143 H       
  49 H49            0.8687    -2.0217    -5.4793 H       
  50 H50            1.5516    -0.1044    -7.0747 H       
  51 H51            1.1831     0.3540    -5.3923 H       
  52 H52            4.4441    -1.3489    -3.3674 H       
  53 H53            4.6419    -2.2781    -4.8788 H       
  54 H54            5.8328     3.5572    -5.7007 H       
  55 H55            6.9469     2.3926    -6.4562 H       
  56 H56            5.6414     3.1275    -7.4174 H       
@<TRIPOS>BOND
   1    1    2 ar
   2    1    6 ar
   3    1   33 1
   4    2    3 ar
   5    2   34 1
   6    3    4 ar
   7    3    7 1
   8    4    5 ar
   9    4   35 1
  10    5    6 ar
  11    5   36 1
  12    6   37 1
  13    7    8 1
  14    7   11 1
  15    8    9 2
  16    8   38 1
  17    9   10 1
  18    9   12 1
  19   10   11 2
  20   11   18 1
  21   12   13 ar
  22   12   17 ar
  23   13   14 ar
  24   13   39 1
  25   14   15 ar
  26   14   40 1
  27   15   16 ar
  28   15   22 1
  29   16   17 ar
  30   16   41 1
  31   17   42 1
  32   18   20 1
  33   18   43 1
  34   18   44 1
  35   19   20 2
  36   20   21 am
  37   21   24 1
  38   21   28 1
  39   22   23 1
  40   23   45 1
  41   23   46 1
  42   23   47 1
  43   24   25 1
  44   24   48 1
  45   24   49 1
  46   25   26 1
  47   25   50 1
  48   25   51 1
  49   26   27 2
  50   26   29 1
  51   27   28 1
  52   27   31 1
  53   28   52 1
  54   28   53 1
  55   29   30 2
  56   30   31 1
  57   30   32 1
  58   32   54 1
  59   32   55 1
  60   32   56 1

#	End of record

