#	Name: ASD03740256
#	Creating user name:	WinNT
#	Creation time:	15. 06. 2019 20:47

#	Modifying user name:	WinNT
#	Modification time:	15. 06. 2019 20:47

#	Program:	/corina/corina34_cracker 3.40 0067  02.08.2006

@<TRIPOS>MOLECULE
ASD03740256
  38   39    0    0    0
SMALL
NO_CHARGES


@<TRIPOS>ATOM
   1 C1            -0.0168     1.3904     0.0097 C.ar    
   2 C2             0.0021    -0.0041     0.0020 C.ar    
   3 C3             1.2066    -0.6757    -0.0131 C.ar    
   4 C4             2.3991     0.0347    -0.0207 C.ar    
   5 C5             2.3840     1.4231    -0.0131 C.ar    
   6 C6             1.1835     2.1010     0.0020 C.ar    
   7 C7             3.6813     2.1899    -0.0213 C.3     
   8 C8             3.3864     3.6912    -0.0105 C.3     
   9 C9             4.4992     1.8219     1.2182 C.3     
  10 C10            4.4754     1.8353    -1.2801 C.3     
  11 O11            3.5842    -0.6303    -0.0351 O.3     
  12 C12            3.5269    -2.0581    -0.0418 C.3     
  13 C13           -1.3089     2.1154     0.0197 C.2     
  14 C14           -2.1939     2.0238    -1.0823 C.2     
  15 O15           -1.8963     1.3440    -2.0504 O.2     
  16 N16           -3.3647     2.6885    -1.0587 N.am    
  17 C17           -3.7145     3.4500     0.0095 C.2     
  18 C18           -2.8982     3.5652     1.0840 C.2     
  19 C19           -1.6734     2.8894     1.1100 C.2     
  20 H20           -0.9254    -0.5574     0.0083 H       
  21 H21            1.2220    -1.7556    -0.0187 H       
  22 H22            1.1725     3.1809     0.0076 H       
  23 H23            2.8207     3.9439     0.8863 H       
  24 H24            4.3247     4.2458    -0.0164 H       
  25 H25            2.8037     3.9534    -0.8935 H       
  26 H26            4.7093     0.7523     1.2104 H       
  27 H27            5.4376     2.3765     1.2122 H       
  28 H28            3.9335     2.0745     2.1150 H       
  29 H29            3.8927     2.0975    -2.1632 H       
  30 H30            5.4137     2.3899    -1.2861 H       
  31 H31            4.6855     0.7657    -1.2879 H       
  32 H32            2.9906    -2.3961    -0.9285 H       
  33 H33            4.5391    -2.4624    -0.0533 H       
  34 H34            3.0073    -2.4051     0.8514 H       
  35 H35           -3.9669     2.6226    -1.8162 H       
  36 H36           -4.6595     3.9729     0.0021 H       
  37 H37           -3.1951     4.1760     1.9237 H       
  38 H38           -1.0195     2.9732     1.9655 H       
@<TRIPOS>BOND
   1    1    2 ar
   2    1    6 ar
   3    1   13 1
   4    2    3 ar
   5    2   20 1
   6    3    4 ar
   7    3   21 1
   8    4    5 ar
   9    4   11 1
  10    5    6 ar
  11    5    7 1
  12    6   22 1
  13    7    8 1
  14    7    9 1
  15    7   10 1
  16    8   23 1
  17    8   24 1
  18    8   25 1
  19    9   26 1
  20    9   27 1
  21    9   28 1
  22   10   29 1
  23   10   30 1
  24   10   31 1
  25   11   12 1
  26   12   32 1
  27   12   33 1
  28   12   34 1
  29   13   14 1
  30   13   19 2
  31   14   15 2
  32   14   16 am
  33   16   17 1
  34   16   35 1
  35   17   18 2
  36   17   36 1
  37   18   19 1
  38   18   37 1
  39   19   38 1

#	End of record

