#	Name: ASD05062005
#	Creating user name:	WinNT
#	Creation time:	15. 06. 2019 20:56

#	Modifying user name:	WinNT
#	Modification time:	15. 06. 2019 20:56

#	Program:	/corina/corina34_cracker 3.40 0067  02.08.2006

@<TRIPOS>MOLECULE
ASD05062005
  34   36    0    0    0
SMALL
NO_CHARGES


@<TRIPOS>ATOM
   1 C1            -0.0168     1.3845     0.0097 C.ar    
   2 C2             0.0021    -0.0041     0.0020 C.ar    
   3 C3            -1.1740    -0.7226     0.0094 C.ar    
   4 C4            -2.3940    -0.0554     0.0251 C.ar    
   5 C5            -2.4142     1.3505     0.0333 C.ar    
   6 C6            -1.2149     2.0651     0.0305 C.ar    
   7 N7            -3.5837    -0.7555     0.0322 N.am    
   8 C8            -4.7668    -0.1186     0.0464 C.2     
   9 C9            -4.8532     1.2852     0.0553 C.2     
  10 C10           -3.7126     2.0432     0.0499 C.2     
  11 C11           -3.7840     3.5213     0.0600 C.ar    
  12 C12           -6.2026     1.9560     0.0708 C.3     
  13 C13           -6.7197     2.0769    -1.3396 C.2     
  14 O14           -5.7939    -0.7759     0.0515 O.2     
  15 O15           -6.0602     1.6610    -2.2626 O.2     
  16 O16           -7.9130     2.6466    -1.5703 O.3     
  17 Cl17           1.4776     2.2680     0.0001 Cl      
  18 C18           -4.3173     4.1896     1.1629 C.ar    
  19 C19           -4.3810     5.5677     1.1660 C.ar    
  20 C20           -3.9179     6.2871     0.0786 C.ar    
  21 C21           -3.3879     5.6305    -1.0180 C.ar    
  22 C22           -3.3129     4.2530    -1.0310 C.ar    
  23 H23            0.9475    -0.5260    -0.0102 H       
  24 H24           -1.1482    -1.8023     0.0026 H       
  25 H25           -1.2261     3.1450     0.0368 H       
  26 H26           -3.5653    -1.7253     0.0264 H       
  27 H27           -6.8976     1.3605     0.6628 H       
  28 H28           -6.1096     2.9492     0.5100 H       
  29 H29           -8.2024     2.7016    -2.4914 H       
  30 H30           -4.6798     3.6292     2.0120 H       
  31 H31           -4.7936     6.0861     2.0189 H       
  32 H32           -3.9706     7.3658     0.0857 H       
  33 H33           -3.0281     6.1978    -1.8636 H       
  34 H34           -2.8987     3.7417    -1.8873 H       
@<TRIPOS>BOND
   1    1    2 ar
   2    1   17 1
   3    1    6 ar
   4    2    3 ar
   5    2   23 1
   6    3    4 ar
   7    3   24 1
   8    4    5 ar
   9    4    7 1
  10    5    6 ar
  11    5   10 1
  12    6   25 1
  13    7    8 am
  14    7   26 1
  15    8    9 1
  16    8   14 2
  17    9   10 2
  18    9   12 1
  19   10   11 1
  20   11   18 ar
  21   11   22 ar
  22   12   13 1
  23   12   27 1
  24   12   28 1
  25   13   15 2
  26   13   16 1
  27   16   29 1
  28   18   19 ar
  29   18   30 1
  30   19   20 ar
  31   19   31 1
  32   20   21 ar
  33   20   32 1
  34   21   22 ar
  35   21   33 1
  36   22   34 1

#	End of record

