#	Name: ASD01140105
#	Creating user name:	WinNT
#	Creation time:	15. 06. 2019 18:59

#	Modifying user name:	WinNT
#	Modification time:	15. 06. 2019 18:59

#	Program:	/corina/corina34_cracker 3.40 0067  02.08.2006

@<TRIPOS>MOLECULE
ASD01140105
  48   49    0    0    0
SMALL
NO_CHARGES


@<TRIPOS>ATOM
   1 C1            -0.0203     1.7069    -0.1989 C.3     
   2 C2             0.0172     0.1768     0.0019 C.3     
   3 C3             1.4373    -0.2025    -0.4730 C.3     
   4 C4             2.0615     1.1105    -0.8997 C.2     
   5 O5             1.3781     2.1092    -0.3114 O.3     
   6 O6             3.0084     1.2384    -1.6393 O.2     
   7 N7            -0.1647    -0.1647     1.4149 N.am    
   8 C8             2.2353    -0.8244     0.6747 C.3     
   9 C9             1.3636    -1.1680    -1.6576 C.3     
  10 C10           -1.4065    -0.3010     1.9207 C.2     
  11 O11           -1.5738    -0.6148     3.2193 O.3     
  12 O12           -2.3751    -0.1406     1.2048 O.2     
  13 C13           -2.9393    -0.7454     3.6953 C.3     
  14 C14           -2.9289    -1.0972     5.1606 C.ar    
  15 C15            3.5985    -1.2867     0.1563 C.3     
  16 C16            4.4479    -1.7838     1.3278 C.3     
  17 C17            0.7146    -2.4785    -1.2078 C.3     
  18 C18            0.7354    -3.4809    -2.3635 C.3     
  19 C19           -2.9381    -0.0945     6.1122 C.ar    
  20 C20           -2.9285    -0.4172     7.4563 C.ar    
  21 C21           -2.9103    -1.7425     7.8489 C.ar    
  22 C22           -2.9021    -2.7452     6.8973 C.ar    
  23 C23           -2.9160    -2.4226     5.5532 C.ar    
  24 H24           -0.5605     1.9556    -1.1124 H       
  25 H25           -0.4854     2.1901     0.6603 H       
  26 H26           -0.7382    -0.3113    -0.6140 H       
  27 H27            0.6085    -0.2927     1.9864 H       
  28 H28            2.3780    -0.0834     1.4613 H       
  29 H29            1.6900    -1.6790     1.0752 H       
  30 H30            0.7674    -0.7217    -2.4535 H       
  31 H31            2.3697    -1.3685    -2.0261 H       
  32 H32           -3.4659     0.1981     3.5518 H       
  33 H33           -3.4452    -1.5326     3.1362 H       
  34 H34            3.4592    -2.0959    -0.5606 H       
  35 H35            4.1039    -0.4528    -0.3308 H       
  36 H36            4.5872    -0.9747     2.0447 H       
  37 H37            3.9425    -2.6178     1.8149 H       
  38 H38            5.4190    -2.1133     0.9584 H       
  39 H39            1.2686    -2.8869    -0.3626 H       
  40 H40           -0.3165    -2.2895    -0.9093 H       
  41 H41            1.7666    -3.6698    -2.6621 H       
  42 H42            0.2731    -4.4145    -2.0431 H       
  43 H43            0.1815    -3.0724    -3.2087 H       
  44 H44           -2.9523     0.9409     5.8055 H       
  45 H45           -2.9350     0.3662     8.1998 H       
  46 H46           -2.9022    -1.9946     8.8990 H       
  47 H47           -2.8875    -3.7806     7.2040 H       
  48 H48           -2.9096    -3.2059     4.8098 H       
@<TRIPOS>BOND
   1    1    2 1
   2    1    5 1
   3    1   24 1
   4    1   25 1
   5    2    3 1
   6    2    7 1
   7    2   26 1
   8    3    4 1
   9    3    9 1
  10    3    8 1
  11    4    5 1
  12    4    6 2
  13    7   10 am
  14    7   27 1
  15    8   15 1
  16    8   28 1
  17    8   29 1
  18    9   17 1
  19    9   30 1
  20    9   31 1
  21   10   11 1
  22   10   12 2
  23   11   13 1
  24   13   14 1
  25   13   32 1
  26   13   33 1
  27   14   19 ar
  28   14   23 ar
  29   15   16 1
  30   15   34 1
  31   15   35 1
  32   16   36 1
  33   16   37 1
  34   16   38 1
  35   17   18 1
  36   17   39 1
  37   17   40 1
  38   18   41 1
  39   18   42 1
  40   18   43 1
  41   19   20 ar
  42   19   44 1
  43   20   21 ar
  44   20   45 1
  45   21   22 ar
  46   21   46 1
  47   22   23 ar
  48   22   47 1
  49   23   48 1

#	End of record

