#	Name: ASD01440136
#	Creating user name:	WinNT
#	Creation time:	15. 06. 2019 19:21

#	Modifying user name:	WinNT
#	Modification time:	15. 06. 2019 19:21

#	Program:	/corina/corina34_cracker 3.40 0067  02.08.2006

@<TRIPOS>MOLECULE
ASD01440136
  41   43    0    0    0
SMALL
NO_CHARGES


@<TRIPOS>ATOM
   1 C1            -0.1365     1.5187     0.1336 C.ar    
   2 C2            -0.1959     0.1723     0.4157 C.ar    
   3 C3             0.8762    -0.4579     1.0365 C.ar    
   4 C4             2.0136     0.2682     1.3760 C.ar    
   5 C5             2.0813     1.6151     1.0974 C.ar    
   6 C6             1.0045     2.2526     0.4723 C.ar    
   7 C7             1.0725     3.6948     0.1714 C.2     
   8 O8             0.3759     4.1661    -0.7066 O.2     
   9 C9             1.9872     4.5671     0.9372 C.ar    
  10 O10            0.8132    -1.7851     1.3128 O.3     
  11 C11           -0.3837    -2.4697     0.9378 C.3     
  12 C12           -0.2721    -3.9230     1.3205 C.2     
  13 N13           -1.2897    -4.7680     1.0621 N.am    
  14 O14            0.7336    -4.3322     1.8612 O.2     
  15 C15            2.4247     5.7759     0.3914 C.ar    
  16 C16            3.2785     6.5851     1.1115 C.ar    
  17 C17            3.7016     6.2017     2.3721 C.ar    
  18 C18            3.2724     5.0051     2.9188 C.ar    
  19 C19            2.4136     4.1891     2.2122 C.ar    
  20 C20           -1.1480    -6.1353     1.3251 C.ar    
  21 C21           -2.2430    -6.8949     1.7161 C.ar    
  22 N22           -2.1133    -8.1825     1.9652 N.ar    
  23 C23           -0.9522    -8.7982     1.8548 C.ar    
  24 C24            0.1832    -8.1096     1.4706 C.ar    
  25 C25            0.0918    -6.7553     1.1932 C.ar    
  26 Br26           3.4679    -0.5955     2.2216 Br      
  27 H27           -0.9683     2.0064    -0.3529 H       
  28 H28           -1.0771    -0.3948     0.1546 H       
  29 H29            2.9641     2.1783     1.3614 H       
  30 H30           -1.2343    -2.0228     1.4525 H       
  31 H31           -0.5269    -2.3877    -0.1396 H       
  32 H32           -2.1204    -4.4286     0.6937 H       
  33 H33            2.0956     6.0762    -0.5925 H       
  34 H34            3.6178     7.5200     0.6906 H       
  35 H35            4.3701     6.8392     2.9317 H       
  36 H36            3.6067     4.7117     3.9029 H       
  37 H37            2.0756     3.2577     2.6420 H       
  38 H38           -3.2104    -6.4256     1.8174 H       
  39 H39           -0.8874    -9.8549     2.0679 H       
  40 H40            1.1296    -8.6224     1.3834 H       
  41 H41            0.9616    -6.1934     0.8863 H       
@<TRIPOS>BOND
   1    1    2 ar
   2    1    6 ar
   3    1   27 1
   4    2    3 ar
   5    2   28 1
   6    3    4 ar
   7    3   10 1
   8    4    5 ar
   9    4   26 1
  10    5    6 ar
  11    5   29 1
  12    6    7 1
  13    7    8 2
  14    7    9 1
  15    9   15 ar
  16    9   19 ar
  17   10   11 1
  18   11   12 1
  19   11   30 1
  20   11   31 1
  21   12   13 am
  22   12   14 2
  23   13   20 1
  24   13   32 1
  25   15   16 ar
  26   15   33 1
  27   16   17 ar
  28   16   34 1
  29   17   18 ar
  30   17   35 1
  31   18   19 ar
  32   18   36 1
  33   19   37 1
  34   20   21 ar
  35   20   25 ar
  36   21   22 ar
  37   21   38 1
  38   22   23 ar
  39   23   24 ar
  40   23   39 1
  41   24   25 ar
  42   24   40 1
  43   25   41 1

#	End of record

