#	Name: ASD03330234
#	Creating user name:	WinNT
#	Creation time:	15. 06. 2019 20:36

#	Modifying user name:	WinNT
#	Modification time:	15. 06. 2019 20:36

#	Program:	/corina/corina34_cracker 3.40 0067  02.08.2006

@<TRIPOS>MOLECULE
ASD03330234
  51   53    0    0    0
SMALL
NO_CHARGES


@<TRIPOS>ATOM
   1 C1            -0.5843     2.9846    -1.5821 C.3     
   2 N2            -0.6498     1.5476    -1.2808 N.3     
   3 C3            -0.0569     0.7483    -2.3683 C.3     
   4 C4             1.2964     1.3287    -2.6885 C.2     
   5 N5             1.7036     2.5602    -2.2834 N.pl3   
   6 C6             0.8688     3.4685    -1.4921 C.3     
   7 C7             2.3153     0.7808    -3.3968 C.2     
   8 N8             3.3297     1.6754    -3.4154 N.2     
   9 C9             2.9675     2.7472    -2.7464 C.2     
  10 C10            3.7962     3.9542    -2.5333 C.ar    
  11 C11            4.9399     4.1637    -3.3044 C.ar    
  12 C12            2.3167    -0.5491    -4.0316 C.2     
  13 O13            1.3381    -1.2659    -3.9439 O.2     
  14 O14            5.1464    -3.0808    -3.8623 O.3     
  15 C15            3.8168    -3.3486    -4.3123 C.3     
  16 C16            3.4040    -2.2933    -5.3403 C.3     
  17 N17            3.4026    -0.9712    -4.7093 N.am    
  18 C18            4.3955    -2.3011    -6.5056 C.3     
  19 C19            4.4961    -3.7156    -7.0801 C.3     
  20 C20            3.9106    -1.3418    -7.5943 C.3     
  21 C21            5.7713    -1.8539    -6.0076 C.3     
  22 C22            5.7083     5.2915    -3.1011 C.ar    
  23 C23            5.3467     6.2136    -2.1352 C.ar    
  24 C24            4.2137     6.0116    -1.3673 C.ar    
  25 C25            3.4341     4.8904    -1.5645 C.ar    
  26 H26           -0.9634     3.1615    -2.5886 H       
  27 H27           -1.1941     3.5335    -0.8645 H       
  28 H28           -0.2061     1.3426    -0.3981 H       
  29 H29            0.0531    -0.2873    -2.0465 H       
  30 H30           -0.6958     0.7948    -3.2502 H       
  31 H31            0.9449     4.4798    -1.8915 H       
  32 H32            1.1964     3.4573    -0.4526 H       
  33 H33            5.2234     3.4444    -4.0585 H       
  34 H34            5.4746    -3.7119    -3.2073 H       
  35 H35            3.7807    -4.3366    -4.7713 H       
  36 H36            3.1329    -3.3168    -3.4642 H       
  37 H37            2.4047    -2.5196    -5.7121 H       
  38 H38            4.1831    -0.3995    -4.7792 H       
  39 H39            3.5160    -4.0342    -7.4349 H       
  40 H40            5.2025    -3.7212    -7.9102 H       
  41 H41            4.8416    -4.3991    -6.3044 H       
  42 H42            3.8389    -0.3341    -7.1850 H       
  43 H43            4.6170    -1.3474    -8.4244 H       
  44 H44            2.9304    -1.6604    -7.9491 H       
  45 H45            6.1999    -2.6323    -5.3763 H       
  46 H46            6.4264    -1.6762    -6.8605 H       
  47 H47            5.6679    -0.9346    -5.4312 H       
  48 H48            6.5940     5.4547    -3.6971 H       
  49 H49            5.9516     7.0946    -1.9796 H       
  50 H50            3.9367     6.7350    -0.6148 H       
  51 H51            2.5499     4.7338    -0.9644 H       
@<TRIPOS>BOND
   1    1    2 1
   2    1    6 1
   3    1   26 1
   4    1   27 1
   5    2    3 1
   6    2   28 1
   7    3    4 1
   8    3   29 1
   9    3   30 1
  10    4    5 1
  11    4    7 2
  12    5    6 1
  13    5    9 1
  14    6   31 1
  15    6   32 1
  16    7    8 1
  17    7   12 1
  18    8    9 2
  19    9   10 1
  20   10   11 ar
  21   10   25 ar
  22   11   22 ar
  23   11   33 1
  24   12   13 2
  25   12   17 am
  26   14   15 1
  27   14   34 1
  28   15   16 1
  29   15   35 1
  30   15   36 1
  31   16   17 1
  32   16   18 1
  33   16   37 1
  34   17   38 1
  35   18   19 1
  36   18   20 1
  37   18   21 1
  38   19   39 1
  39   19   40 1
  40   19   41 1
  41   20   42 1
  42   20   43 1
  43   20   44 1
  44   21   45 1
  45   21   46 1
  46   21   47 1
  47   22   23 ar
  48   22   48 1
  49   23   24 ar
  50   23   49 1
  51   24   25 ar
  52   24   50 1
  53   25   51 1

#	End of record

