#	Name: ASD02440042
#	Creating user name:	WinNT
#	Creation time:	15. 06. 2019 20:21

#	Modifying user name:	WinNT
#	Modification time:	15. 06. 2019 20:21

#	Program:	/corina/corina34_cracker 3.40 0067  02.08.2006

@<TRIPOS>MOLECULE
ASD02440042
  59   63    0    0    0
SMALL
NO_CHARGES


@<TRIPOS>ATOM
   1 N1             0.0164     1.3478    -0.7011 N.am    
   2 C2             0.0557    -0.0176    -0.7763 C.2     
   3 S3             1.7582    -0.4877    -0.6330 S.3     
   4 C4             2.3575     1.1748    -0.4765 C.2     
   5 C5             1.1516     2.0091    -0.5490 C.2     
   6 N6            -0.9702    -0.8242    -0.9255 N.2     
   7 C7            -0.7739    -2.1779    -0.9844 C.ar    
   8 C8            -1.2582     2.0641    -0.7934 C.3     
   9 C9            -1.8434     2.2277     0.5856 C.ar    
  10 O10            1.1937     3.2230    -0.4748 O.2     
  11 C11            3.6416     1.5833    -0.3241 C.2     
  12 C12            4.7042     0.5952    -0.0878 C.ar    
  13 C13            4.3761    -0.7247     0.2412 C.ar    
  14 C14            5.3766    -1.6481     0.4615 C.ar    
  15 C15            6.7042    -1.2746     0.3586 C.ar    
  16 C16            7.0413     0.0334     0.0330 C.ar    
  17 C17            6.0477     0.9688    -0.1963 C.ar    
  18 C18           -1.5990    -3.0383    -0.2569 C.ar    
  19 C19           -1.3963    -4.4012    -0.3202 C.ar    
  20 C20           -0.3765    -4.9171    -1.1035 C.ar    
  21 C21            0.4454    -4.0685    -1.8274 C.ar    
  22 C22            0.2488    -2.7041    -1.7766 C.ar    
  23 C23           -3.2242     1.3988     2.3580 C.ar    
  24 C24           -2.6846     1.2552     1.0966 C.ar    
  25 C25           -1.5326     3.3471     1.3373 C.ar    
  26 C26           -2.0648     3.5032     2.6003 C.ar    
  27 C27           -2.9189     2.5284     3.1199 C.ar    
  28 C28           -3.4934     2.6893     4.4713 C.2     
  29 O29           -4.2331     1.8377     4.9221 O.2     
  30 O30           -3.1969     3.7803     5.2038 O.3     
  31 F31           -0.1824    -6.2529    -1.1612 F       
  32 O32            8.3481     0.3931    -0.0654 O.3     
  33 C33            8.8603     1.2055     0.8960 C.ar    
  34 C34            8.0965     1.5353     2.0065 C.ar    
  35 C35           10.1500     1.7019     0.7718 C.ar    
  36 C36           10.6685     2.5271     1.7507 C.ar    
  37 C37            9.9034     2.8585     2.8538 C.ar    
  38 C38            8.6198     2.3609     2.9826 C.ar    
  39 H39           -1.0919     3.0460    -1.2364 H       
  40 H40           -1.9495     1.4967    -1.4165 H       
  41 H41            3.8837     2.6345    -0.3764 H       
  42 H42            3.3404    -1.0200     0.3228 H       
  43 H43            5.1223    -2.6665     0.7157 H       
  44 H44            7.4825    -2.0029     0.5325 H       
  45 H45            6.3087     1.9858    -0.4495 H       
  46 H46           -2.3941    -2.6372     0.3542 H       
  47 H47           -2.0336    -5.0675     0.2423 H       
  48 H48            1.2388    -4.4764    -2.4363 H       
  49 H49            0.8900    -2.0436    -2.3414 H       
  50 H50           -3.8812     0.6393     2.7554 H       
  51 H51           -2.9196     0.3818     0.5064 H       
  52 H52           -0.8716     4.1001     0.9343 H       
  53 H53           -1.8211     4.3772     3.1861 H       
  54 H54           -3.5966     3.8413     6.0822 H       
  55 H55            7.0937     1.1472     2.1074 H       
  56 H56           10.7482     1.4431    -0.0894 H       
  57 H57           11.6724     2.9135     1.6547 H       
  58 H58           10.3106     3.5038     3.6181 H       
  59 H59            8.0257     2.6180     3.8471 H       
@<TRIPOS>BOND
   1    1    2 1
   2    1    5 am
   3    1    8 1
   4    2    3 1
   5    2    6 2
   6    3    4 1
   7    4    5 1
   8    4   11 2
   9    5   10 2
  10    6    7 1
  11    7   18 ar
  12    7   22 ar
  13    8    9 1
  14    8   39 1
  15    8   40 1
  16    9   25 ar
  17    9   24 ar
  18   11   12 1
  19   11   41 1
  20   12   13 ar
  21   12   17 ar
  22   13   14 ar
  23   13   42 1
  24   14   15 ar
  25   14   43 1
  26   15   16 ar
  27   15   44 1
  28   16   17 ar
  29   16   32 1
  30   17   45 1
  31   18   19 ar
  32   18   46 1
  33   19   20 ar
  34   19   47 1
  35   20   21 ar
  36   20   31 1
  37   21   22 ar
  38   21   48 1
  39   22   49 1
  40   23   24 ar
  41   23   27 ar
  42   23   50 1
  43   24   51 1
  44   25   26 ar
  45   25   52 1
  46   26   27 ar
  47   26   53 1
  48   27   28 1
  49   28   29 2
  50   28   30 1
  51   30   54 1
  52   32   33 1
  53   33   35 ar
  54   33   34 ar
  55   34   38 ar
  56   34   55 1
  57   35   36 ar
  58   35   56 1
  59   36   37 ar
  60   36   57 1
  61   37   38 ar
  62   37   58 1
  63   38   59 1

#	End of record

