#	Name: ASD01148680
#	Creating user name:	WinNT
#	Creation time:	15. 06. 2019 19:03

#	Modifying user name:	WinNT
#	Modification time:	15. 06. 2019 19:03

#	Program:	/corina/corina34_cracker 3.40 0067  02.08.2006

@<TRIPOS>MOLECULE
ASD01148680
  40   41    0    0    0
SMALL
NO_CHARGES


@<TRIPOS>ATOM
   1 C1            -0.0158     1.3160     0.0093 C.ar    
   2 N2             0.0021    -0.0041     0.0020 N.ar    
   3 C3             1.1525    -0.6711    -0.0125 C.ar    
   4 C4             2.3458     0.0401    -0.0201 C.ar    
   5 C5             2.2864     1.4312    -0.0120 C.ar    
   6 N6             1.0960     2.0271     0.0025 N.ar    
   7 F7            -1.2052     1.9567     0.0183 F       
   8 N8             3.4497     2.1846    -0.0186 N.3     
   9 C9             3.1463     3.6214    -0.0081 C.3     
  10 C10            4.4458     4.4176     0.1310 C.3     
  11 C11            5.3726     4.0812    -1.0404 C.3     
  12 C12            5.6340     2.5726    -1.0574 C.3     
  13 C13            4.3000     1.8299    -1.1621 C.3     
  14 C14            6.5109     2.2196    -2.2604 C.3     
  15 C15            4.1312     5.9148     0.1199 C.3     
  16 O16            1.1607    -2.0264    -0.0194 O.3     
  17 C17           -0.1086    -2.6829    -0.0104 C.3     
  18 C18            0.0930    -4.1410    -0.0197 C.1     
  19 C19            0.2538    -5.3039    -0.0271 C.1     
  20 C20            0.4553    -6.7620    -0.0365 C.3     
  21 H21            3.2960    -0.4732    -0.0315 H       
  22 H22            2.6508     3.8947    -0.9397 H       
  23 H23            2.4899     3.8478     0.8321 H       
  24 H24            4.9348     4.1549     1.0691 H       
  25 H25            4.8999     4.3796    -1.9762 H       
  26 H26            6.3167     4.6131    -0.9223 H       
  27 H27            6.1417     2.2808    -0.1381 H       
  28 H28            4.4816     0.7551    -1.1601 H       
  29 H29            3.7992     2.1117    -2.0883 H       
  30 H30            7.4595     2.7516    -2.1871 H       
  31 H31            6.6966     1.1456    -2.2720 H       
  32 H32            6.0015     2.5102    -3.1792 H       
  33 H33            3.4686     6.1531     0.9520 H       
  34 H34            5.0571     6.4814     0.2190 H       
  35 H35            3.6437     6.1767    -0.8192 H       
  36 H36           -0.6587    -2.3978     0.8864 H       
  37 H37           -0.6760    -2.3889    -0.8934 H       
  38 H38           -0.5128    -7.2627    -0.0296 H       
  39 H39            1.0054    -7.0470    -0.9333 H       
  40 H40            1.0227    -7.0560     0.8466 H       
@<TRIPOS>BOND
   1    1    2 ar
   2    1    6 ar
   3    1    7 1
   4    2    3 ar
   5    3    4 ar
   6    3   16 1
   7    4    5 ar
   8    4   21 1
   9    5    6 ar
  10    5    8 1
  11    8    9 1
  12    8   13 1
  13    9   10 1
  14    9   22 1
  15    9   23 1
  16   10   11 1
  17   10   15 1
  18   10   24 1
  19   11   12 1
  20   11   25 1
  21   11   26 1
  22   12   13 1
  23   12   14 1
  24   12   27 1
  25   13   28 1
  26   13   29 1
  27   14   30 1
  28   14   31 1
  29   14   32 1
  30   15   33 1
  31   15   34 1
  32   15   35 1
  33   16   17 1
  34   17   18 1
  35   17   36 1
  36   17   37 1
  37   18   19 3
  38   19   20 1
  39   20   38 1
  40   20   39 1
  41   20   40 1

#	End of record

