#	Name: ASD05430553
#	Creating user name:	WinNT
#	Creation time:	15. 06. 2019 21:00

#	Modifying user name:	WinNT
#	Modification time:	15. 06. 2019 21:00

#	Program:	/corina/corina34_cracker 3.40 0067  02.08.2006

@<TRIPOS>MOLECULE
ASD05430553
  34   35    0    0    0
SMALL
NO_CHARGES


@<TRIPOS>ATOM
   1 C1            -0.0166     1.3730     0.0096 C.ar    
   2 C2             0.0021    -0.0041     0.0020 C.ar    
   3 C3             1.1769     2.0818     0.0020 C.ar    
   4 C4             2.3820     1.4082    -0.0136 C.ar    
   5 C5             2.4007     0.0260    -0.0212 C.ar    
   6 C6             1.2143    -0.6801    -0.0135 C.ar    
   7 C7            -1.5006    -0.0973     0.0159 C.3     
   8 C8            -1.5212     1.4251     0.0295 C.3     
   9 C9             1.1572     3.5886     0.0103 C.3     
  10 C10            1.2355    -2.1869    -0.0218 C.3     
  11 C11            1.9517    -2.6800    -1.2807 C.3     
  12 C12            1.9758    -2.6934     1.2176 C.3     
  13 C13            1.8836     4.1013     1.2554 C.3     
  14 C14            1.8597     4.1147    -1.2429 C.3     
  15 H15            3.3097     1.9610    -0.0202 H       
  16 H16            3.3431    -0.5014    -0.0335 H       
  17 H17           -1.9189    -0.5342    -0.8909 H       
  18 H18           -1.9015    -0.5440     0.9257 H       
  19 H19           -1.9338     1.8475     0.9457 H       
  20 H20           -1.9515     1.8636    -0.8708 H       
  21 H21            0.1249     3.9384     0.0220 H       
  22 H22            0.2131    -2.5647    -0.0140 H       
  23 H23            2.9741    -2.3022    -1.2885 H       
  24 H24            1.9670    -3.7699    -1.2867 H       
  25 H25            1.4243    -2.3192    -2.1637 H       
  26 H26            2.9982    -2.3157     1.2098 H       
  27 H27            1.4656    -2.3422     2.1145 H       
  28 H28            1.9911    -3.7833     1.2116 H       
  29 H29            2.9159     3.7515     1.2437 H       
  30 H30            1.8693     5.1912     1.2614 H       
  31 H31            1.3831     3.7265     2.1482 H       
  32 H32            2.8920     3.7649    -1.2546 H       
  33 H33            1.3422     3.7495    -2.1300 H       
  34 H34            1.8455     5.2046    -1.2369 H       
@<TRIPOS>BOND
   1    1    2 ar
   2    1    3 ar
   3    1    8 1
   4    2    7 1
   5    2    6 ar
   6    3    4 ar
   7    3    9 1
   8    4    5 ar
   9    4   15 1
  10    5    6 ar
  11    5   16 1
  12    6   10 1
  13    7    8 1
  14    7   17 1
  15    7   18 1
  16    8   19 1
  17    8   20 1
  18    9   13 1
  19    9   14 1
  20    9   21 1
  21   10   11 1
  22   10   12 1
  23   10   22 1
  24   11   23 1
  25   11   24 1
  26   11   25 1
  27   12   26 1
  28   12   27 1
  29   12   28 1
  30   13   29 1
  31   13   30 1
  32   13   31 1
  33   14   32 1
  34   14   33 1
  35   14   34 1

#	End of record

