#	Name: ASD09120011
#	Creating user name:	WinNT
#	Creation time:	15. 06. 2019 21:21

#	Modifying user name:	WinNT
#	Modification time:	15. 06. 2019 21:21

#	Program:	/corina/corina34_cracker 3.40 0067  02.08.2006

@<TRIPOS>MOLECULE
ASD09120011
  38   40    0    0    0
SMALL
NO_CHARGES


@<TRIPOS>ATOM
   1 C1            -0.0303     1.3762    -0.0504 C.ar    
   2 C2            -0.0242    -0.0030    -0.0696 C.ar    
   3 C3             0.8932    -0.7054     0.6920 C.ar    
   4 C4             1.8103    -0.0311     1.4778 C.ar    
   5 C5             1.8158     1.3496     1.5069 C.ar    
   6 C6             0.8922     2.0645     0.7396 C.ar    
   7 N7            -1.0018    -0.7338    -0.9069 N.pl3   
   8 O8            -1.8103    -0.1173    -1.5776 O.2     
   9 O9            -0.9979    -1.9517    -0.9251 O.2     
  10 C10            0.8916     3.5417     0.7647 C.2     
  11 O11            1.6963     4.1382     1.4537 O.2     
  12 N12           -0.0009     4.2279     0.0238 N.am    
  13 C13           -0.0666     5.6216     0.1218 C.ar    
  14 Cl14           2.9666     2.1948     2.4944 Cl      
  15 C15            1.0335     7.7378     0.4093 C.ar    
  16 C16            1.0946     6.3604     0.3121 C.ar    
  17 C17           -1.2903     6.2671     0.0233 C.ar    
  18 C18           -1.3507     7.6543     0.1214 C.ar    
  19 C19           -0.1813     8.3871     0.3180 C.ar    
  20 C20           -2.6566     8.3513     0.0164 C.ar    
  21 C21           -2.7179     9.7399     0.1145 C.ar    
  22 C22           -3.9351    10.3831     0.0157 C.ar    
  23 C23           -5.0927     9.6518    -0.1804 C.ar    
  24 C24           -5.0376     8.2732    -0.2785 C.ar    
  25 C25           -3.8252     7.6201    -0.1864 C.ar    
  26 H26           -0.7445     1.9225    -0.6487 H       
  27 H27            0.8929    -1.7852     0.6730 H       
  28 H28            2.5233    -0.5855     2.0700 H       
  29 H29           -0.5976     3.7553    -0.5773 H       
  30 H30            1.9388     8.3078     0.5572 H       
  31 H31            2.0474     5.8571     0.3845 H       
  32 H32           -2.1936     5.6951    -0.1295 H       
  33 H33           -0.2253     9.4634     0.3952 H       
  34 H34           -1.8147    10.3118     0.2680 H       
  35 H35           -3.9838    11.4593     0.0919 H       
  36 H36           -6.0430    10.1591    -0.2568 H       
  37 H37           -5.9446     7.7070    -0.4313 H       
  38 H38           -3.7828     6.5440    -0.2676 H       
@<TRIPOS>BOND
   1    1    2 ar
   2    1    6 ar
   3    1   26 1
   4    2    3 ar
   5    2    7 1
   6    3    4 ar
   7    3   27 1
   8    4    5 ar
   9    4   28 1
  10    5    6 ar
  11    5   14 1
  12    6   10 1
  13    7    8 2
  14    7    9 2
  15   10   11 2
  16   10   12 am
  17   12   13 1
  18   12   29 1
  19   13   17 ar
  20   13   16 ar
  21   15   16 ar
  22   15   19 ar
  23   15   30 1
  24   16   31 1
  25   17   18 ar
  26   17   32 1
  27   18   19 ar
  28   18   20 1
  29   19   33 1
  30   20   21 ar
  31   20   25 ar
  32   21   22 ar
  33   21   34 1
  34   22   23 ar
  35   22   35 1
  36   23   24 ar
  37   23   36 1
  38   24   25 ar
  39   24   37 1
  40   25   38 1

#	End of record

