#	Name: ASD07670001
#	Creating user name:	WinNT
#	Creation time:	15. 06. 2019 21:11

#	Modifying user name:	WinNT
#	Modification time:	15. 06. 2019 21:11

#	Program:	/corina/corina34_cracker 3.40 0067  02.08.2006

@<TRIPOS>MOLECULE
ASD07670001
  37   36    0    0    0
SMALL
NO_CHARGES


@<TRIPOS>ATOM
   1 O1             0.0021    -0.0041     0.0020 O.2     
   2 C2            -0.0144     1.2086     0.0087 C.2     
   3 N3             1.1435     1.8983     0.0013 N.am    
   4 C4             2.4220     1.1832    -0.0147 C.3     
   5 C5             3.5540     2.1779    -0.0202 C.2     
   6 O6             4.8254     1.7478    -0.0346 O.3     
   7 O7             3.3172     3.3627    -0.0116 O.2     
   8 C8            -1.3296     1.9443     0.0189 C.3     
   9 C9            -1.4285     2.8295    -1.2251 C.3     
  10 S10           -2.9423     3.8253    -1.1398 S.3     
  11 N11           -2.4300     0.9773     0.0189 N.am    
  12 C12           -3.6322     1.3244     0.5198 C.2     
  13 C13           -4.7642     0.3296     0.5197 C.3     
  14 C14           -6.0074     0.9717     1.1388 C.3     
  15 C15           -7.1567    -0.0383     1.1387 C.3     
  16 N16           -6.8200    -1.1633     2.0213 N.3     
  17 C17           -8.4130     0.6304     1.6343 C.2     
  18 O18           -9.1347     1.4012     0.8055 O.3     
  19 O19           -8.7706     0.4728     2.7776 O.2     
  20 O20           -3.8029     2.4373     0.9705 O.2     
  21 H21            1.1304     2.8682     0.0067 H       
  22 H22            2.4967     0.5526     0.8712 H       
  23 H23            2.4797     0.5621    -0.9086 H       
  24 H24            5.5174     2.4233    -0.0376 H       
  25 H25           -1.3916     2.5653     0.9126 H       
  26 H26           -0.5619     3.4890    -1.2715 H       
  27 H27           -1.4558     2.2023    -2.1161 H       
  28 H28           -2.8980     4.5412    -2.2776 H       
  29 H29           -2.2935     0.0872    -0.3416 H       
  30 H30           -4.9829     0.0281    -0.5047 H       
  31 H31           -4.4787    -0.5458     1.1031 H       
  32 H32           -5.7887     1.2732     2.1631 H       
  33 H33           -6.2929     1.8471     0.5554 H       
  34 H34           -7.3166    -0.4066     0.1254 H       
  35 H35           -6.0180    -1.6677     1.6742 H       
  36 H36           -6.6668    -0.8475     2.9673 H       
  37 H37           -9.9327     1.8091     1.1688 H       
@<TRIPOS>BOND
   1    1    2 2
   2    2    3 am
   3    2    8 1
   4    3    4 1
   5    3   21 1
   6    4    5 1
   7    4   22 1
   8    4   23 1
   9    5    6 1
  10    5    7 2
  11    6   24 1
  12    8    9 1
  13    8   11 1
  14    8   25 1
  15    9   10 1
  16    9   26 1
  17    9   27 1
  18   10   28 1
  19   11   12 am
  20   11   29 1
  21   12   13 1
  22   12   20 2
  23   13   14 1
  24   13   30 1
  25   13   31 1
  26   14   15 1
  27   14   32 1
  28   14   33 1
  29   15   16 1
  30   15   17 1
  31   15   34 1
  32   16   35 1
  33   16   36 1
  34   17   18 1
  35   17   19 2
  36   18   37 1

#	End of record

