#	Name: ASD05940083
#	Creating user name:	WinNT
#	Creation time:	15. 06. 2019 21:04

#	Modifying user name:	WinNT
#	Modification time:	15. 06. 2019 21:04

#	Program:	/corina/corina34_cracker 3.40 0067  02.08.2006

@<TRIPOS>MOLECULE
ASD05940083
  64   68    0    0    0
SMALL
NO_CHARGES


@<TRIPOS>ATOM
   1 N1             0.2069     1.5599     0.6879 N.ar    
   2 C2             0.1233     0.2412     0.6364 C.ar    
   3 N3             1.1810    -0.5236     0.4158 N.ar    
   4 C4             2.3820     0.0188     0.2362 C.ar    
   5 C5             2.5070     1.4069     0.2688 C.ar    
   6 C6             1.3745     2.1785     0.5094 C.ar    
   7 N7             1.4583     3.5633     0.5620 N.pl3   
   8 O8            -1.0845    -0.3466     0.8158 O.3     
   9 C9            -2.1980     0.5176     1.0514 C.3     
  10 C10           -3.4465    -0.3080     1.2260 C.ar    
  11 N11            3.5016    -0.7711     0.0422 N.3     
  12 C12            3.9179    -0.8145    -1.3627 C.3     
  13 C13            3.8786     0.5827    -1.9752 C.3     
  14 C14            4.4760     1.5904    -1.0299 C.2     
  15 N15            3.7613     1.9995     0.0414 N.am    
  16 O16            5.5889     2.0309    -1.2278 O.2     
  17 C17            3.2884    -2.1253     0.5702 C.3     
  18 C18            4.4876    -2.9819     0.2550 C.ar    
  19 C19            5.5911    -2.9589     1.0869 C.ar    
  20 C20            6.6912    -3.7447     0.7978 C.ar    
  21 C21            6.6874    -4.5537    -0.3229 C.ar    
  22 C22            5.5832    -4.5773    -1.1546 C.ar    
  23 C23            4.4816    -3.7950    -0.8632 C.ar    
  24 C24            5.5791    -5.4590    -2.3768 C.3     
  25 N25            5.0372    -6.7788    -2.0267 N.3     
  26 C26            4.7952    -7.5880    -3.2352 C.3     
  27 C27            5.5965    -8.8973    -3.0767 C.3     
  28 C28            5.7925    -9.0034    -1.5414 C.3     
  29 C29            5.9668    -7.5162    -1.1447 C.3     
  30 C30           -3.8155    -0.7456     2.4843 C.ar    
  31 C31           -4.9608    -1.5029     2.6444 C.ar    
  32 C32           -5.7373    -1.8223     1.5462 C.ar    
  33 C33           -5.3688    -1.3840     0.2881 C.ar    
  34 C34           -4.2259    -0.6230     0.1286 C.ar    
  35 H35            2.3129     4.0028     0.4304 H       
  36 H36            0.6622     4.0913     0.7304 H       
  37 H37           -2.0197     1.1020     1.9541 H       
  38 H38           -2.3225     1.1895     0.2023 H       
  39 H39            4.9332    -1.2062    -1.4251 H       
  40 H40            3.2456    -1.4694    -1.9171 H       
  41 H41            4.4451     0.5832    -2.9065 H       
  42 H42            2.8440     0.8548    -2.1842 H       
  43 H43            4.1043     2.6838     0.6373 H       
  44 H44            3.1504    -2.0766     1.6503 H       
  45 H45            2.4008    -2.5592     0.1097 H       
  46 H46            5.5941    -2.3268     1.9626 H       
  47 H47            7.5538    -3.7262     1.4474 H       
  48 H48            7.5470    -5.1670    -0.5492 H       
  49 H49            3.6191    -3.8135    -1.5128 H       
  50 H50            4.9593    -5.0052    -3.1501 H       
  51 H51            6.5981    -5.5712    -2.7472 H       
  52 H52            3.7323    -7.8123    -3.3245 H       
  53 H53            5.1379    -7.0481    -4.1179 H       
  54 H54            5.0254    -9.7465    -3.4519 H       
  55 H55            6.5586    -8.8242    -3.5839 H       
  56 H56            4.9123    -9.4343    -1.0643 H       
  57 H57            6.6863    -9.5790    -1.3007 H       
  58 H58            6.9931    -7.1942    -1.3209 H       
  59 H59            5.6959    -7.3681    -0.0993 H       
  60 H60           -3.2089    -0.4960     3.3422 H       
  61 H61           -5.2487    -1.8454     3.6273 H       
  62 H62           -6.6318    -2.4147     1.6712 H       
  63 H63           -5.9753    -1.6339    -0.5699 H       
  64 H64           -3.9380    -0.2805    -0.8544 H       
@<TRIPOS>BOND
   1    1    2 ar
   2    1    6 ar
   3    2    3 ar
   4    2    8 1
   5    3    4 ar
   6    4    5 ar
   7    4   11 1
   8    5    6 ar
   9    5   15 1
  10    6    7 1
  11    7   35 1
  12    7   36 1
  13    8    9 1
  14    9   10 1
  15    9   37 1
  16    9   38 1
  17   10   30 ar
  18   10   34 ar
  19   11   12 1
  20   11   17 1
  21   12   13 1
  22   12   39 1
  23   12   40 1
  24   13   14 1
  25   13   41 1
  26   13   42 1
  27   14   15 am
  28   14   16 2
  29   15   43 1
  30   17   18 1
  31   17   44 1
  32   17   45 1
  33   18   19 ar
  34   18   23 ar
  35   19   20 ar
  36   19   46 1
  37   20   21 ar
  38   20   47 1
  39   21   22 ar
  40   21   48 1
  41   22   23 ar
  42   22   24 1
  43   23   49 1
  44   24   25 1
  45   24   50 1
  46   24   51 1
  47   25   26 1
  48   25   29 1
  49   26   27 1
  50   26   52 1
  51   26   53 1
  52   27   28 1
  53   27   54 1
  54   27   55 1
  55   28   29 1
  56   28   56 1
  57   28   57 1
  58   29   58 1
  59   29   59 1
  60   30   31 ar
  61   30   60 1
  62   31   32 ar
  63   31   61 1
  64   32   33 ar
  65   32   62 1
  66   33   34 ar
  67   33   63 1
  68   34   64 1

#	End of record

