#	Name: ASD01901229
#	Creating user name:	WinNT
#	Creation time:	15. 06. 2019 19:53

#	Modifying user name:	WinNT
#	Modification time:	15. 06. 2019 19:53

#	Program:	/corina/corina34_cracker 3.40 0067  02.08.2006

@<TRIPOS>MOLECULE
ASD01901229
  49   52    0    0    0
SMALL
NO_CHARGES


@<TRIPOS>ATOM
   1 C1            -2.8246     2.0037    -0.0220 C.ar    
   2 C2            -3.1529     0.6644     0.0065 C.ar    
   3 C3            -2.1710    -0.2879     0.2162 C.ar    
   4 C4            -0.8538     0.0951     0.3988 C.ar    
   5 C5            -0.5104     1.4305     0.3729 C.ar    
   6 C6            -1.4965     2.3980     0.1616 C.ar    
   7 C7            -1.1478     3.7865     0.1329 C.1     
   8 C8            -0.8618     4.9249     0.1094 C.1     
   9 C9            -0.5130     6.3135     0.0807 C.ar    
  10 C10           -1.1611     8.6161    -0.1518 C.ar    
  11 C11           -1.5014     7.2802    -0.1254 C.ar    
  12 C12            0.8162     6.7063     0.2646 C.ar    
  13 C13            1.1479     8.0431     0.2368 C.ar    
  14 C14            0.1635     9.0016     0.0264 C.ar    
  15 N15            0.5048    10.3572    -0.0010 N.am    
  16 N16            0.8913    12.3641     1.1765 N.am    
  17 C17            0.5119    11.0681     1.1336 C.2     
  18 C18            0.8440    10.9420    -1.1690 C.2     
  19 C19            1.0201    12.4044    -1.1954 C.ar    
  20 C20            0.9367    13.1238     0.0233 C.ar    
  21 C21            0.8414    14.5002    -0.0554 C.ar    
  22 C22            1.2965    13.0610    -2.3913 C.ar    
  23 C23            1.3540    14.4368    -2.4137 C.ar    
  24 C24            1.0949    15.1476    -1.2566 C.ar    
  25 O25            1.0008    10.2772    -2.1757 O.2     
  26 Cl26          -2.3870     9.8182    -0.4082 Cl      
  27 O27            0.1656    10.5342     2.1680 O.2     
  28 C28            1.3388    12.8586     2.4828 C.3     
  29 C29            0.3982    15.3724     1.0937 C.3     
  30 C30           -1.1117    15.2256     1.2925 C.3     
  31 H31           -3.5912     2.7455    -0.1901 H       
  32 H32           -4.1789     0.3582    -0.1348 H       
  33 H33           -2.4341    -1.3351     0.2379 H       
  34 H34           -0.0929    -0.6537     0.5623 H       
  35 H35            0.5179     1.7280     0.5159 H       
  36 H36           -2.5299     6.9812    -0.2641 H       
  37 H37            1.5819     5.9626     0.4285 H       
  38 H38            2.1745     8.3468     0.3791 H       
  39 H39            1.4657    12.4950    -3.2963 H       
  40 H40            1.5999    14.9544    -3.3279 H       
  41 H41            1.0857    16.2281    -1.2795 H       
  42 H42            1.3738    12.0315     3.1918 H       
  43 H43            2.3326    13.2956     2.3848 H       
  44 H44            0.6426    13.6163     2.8424 H       
  45 H45            0.9158    15.0664     2.0028 H       
  46 H46            0.6361    16.4129     0.8728 H       
  47 H47           -1.4180    15.7857     2.1760 H       
  48 H48           -1.6329    15.6138     0.4174 H       
  49 H49           -1.3600    14.1726     1.4257 H       
@<TRIPOS>BOND
   1    1    2 ar
   2    1    6 ar
   3    1   31 1
   4    2    3 ar
   5    2   32 1
   6    3    4 ar
   7    3   33 1
   8    4    5 ar
   9    4   34 1
  10    5    6 ar
  11    5   35 1
  12    6    7 1
  13    7    8 3
  14    8    9 1
  15    9   12 ar
  16    9   11 ar
  17   10   11 ar
  18   10   14 ar
  19   10   26 1
  20   11   36 1
  21   12   13 ar
  22   12   37 1
  23   13   14 ar
  24   13   38 1
  25   14   15 1
  26   15   18 am
  27   15   17 am
  28   16   17 am
  29   16   20 1
  30   16   28 1
  31   17   27 2
  32   18   19 1
  33   18   25 2
  34   19   22 ar
  35   19   20 ar
  36   20   21 ar
  37   21   24 ar
  38   21   29 1
  39   22   23 ar
  40   22   39 1
  41   23   24 ar
  42   23   40 1
  43   24   41 1
  44   28   42 1
  45   28   43 1
  46   28   44 1
  47   29   30 1
  48   29   45 1
  49   29   46 1
  50   30   47 1
  51   30   48 1
  52   30   49 1

#	End of record

