#	Name: ASD05790129
#	Creating user name:	WinNT
#	Creation time:	15. 06. 2019 21:03

#	Modifying user name:	WinNT
#	Modification time:	15. 06. 2019 21:03

#	Program:	/corina/corina34_cracker 3.40 0067  02.08.2006

@<TRIPOS>MOLECULE
ASD05790129
  42   45    0    0    0
SMALL
NO_CHARGES


@<TRIPOS>ATOM
   1 C1            -0.0067     1.3660    -0.2048 C.ar    
   2 C2             0.0070    -0.0120     0.0218 C.ar    
   3 C3             1.2206    -0.6697     0.2343 C.ar    
   4 C4             2.3999     0.0422     0.2196 C.ar    
   5 C5             2.3828     1.4143    -0.0060 C.ar    
   6 C6             1.1762     2.0721    -0.2183 C.ar    
   7 N7             3.5799     2.1330    -0.0197 N.am    
   8 C8            -1.2596    -0.7723     0.0374 C.2     
   9 O9            -2.4853    -0.2540    -0.1533 O.3     
  10 N10           -1.3718    -2.0640     0.2338 N.2     
  11 C11           -2.6785    -2.3957     0.1769 C.2     
  12 C12           -3.3784    -1.2590    -0.0662 C.2     
  13 C13           -3.2464    -3.7563     0.3460 C.ar    
  14 C14           -2.4049    -4.8399     0.5899 C.ar    
  15 C15           -2.9385    -6.1030     0.7468 C.ar    
  16 C16           -4.3058    -6.2944     0.6620 C.ar    
  17 C17           -5.1457    -5.2223     0.4201 C.ar    
  18 C18           -4.6235    -3.9540     0.2673 C.ar    
  19 C19            4.6962     1.5733    -0.5267 C.2     
  20 O20            4.6822     0.4144    -0.8942 O.2     
  21 C21            5.9362     2.3674    -0.6358 C.ar    
  22 C22            6.2010     3.1005    -1.7959 C.ar    
  23 C23            6.8484     2.3944     0.4227 C.ar    
  24 C24            8.0059     3.1394     0.3131 C.ar    
  25 C25            8.2636     3.8578    -0.8406 C.ar    
  26 C26            7.3629     3.8407    -1.8904 C.ar    
  27 Cl27           6.5269     1.4941     1.8718 Cl      
  28 Cl28           5.0724     3.0801    -3.1148 Cl      
  29 H29           -0.9431     1.8768    -0.3739 H       
  30 H30            1.2345    -1.7352     0.4102 H       
  31 H31            3.3388    -0.4658     0.3838 H       
  32 H32            1.1662     3.1378    -0.3932 H       
  33 H33            3.6081     3.0352     0.3355 H       
  34 H34           -4.4501    -1.1754    -0.1699 H       
  35 H35           -1.3371    -4.6916     0.6556 H       
  36 H36           -2.2872    -6.9435     0.9359 H       
  37 H37           -4.7190    -7.2846     0.7848 H       
  38 H38           -6.2125    -5.3775     0.3545 H       
  39 H39           -5.2802    -3.1176     0.0787 H       
  40 H40            8.7116     3.1616     1.1303 H       
  41 H41            9.1707     4.4387    -0.9205 H       
  42 H42            7.5712     4.4039    -2.7881 H       
@<TRIPOS>BOND
   1    1    2 ar
   2    1    6 ar
   3    1   29 1
   4    2    3 ar
   5    2    8 1
   6    3    4 ar
   7    3   30 1
   8    4    5 ar
   9    4   31 1
  10    5    6 ar
  11    5    7 1
  12    6   32 1
  13    7   19 am
  14    7   33 1
  15    8    9 1
  16    8   10 2
  17    9   12 1
  18   10   11 1
  19   11   12 2
  20   11   13 1
  21   12   34 1
  22   13   14 ar
  23   13   18 ar
  24   14   15 ar
  25   14   35 1
  26   15   16 ar
  27   15   36 1
  28   16   17 ar
  29   16   37 1
  30   17   18 ar
  31   17   38 1
  32   18   39 1
  33   19   20 2
  34   19   21 1
  35   21   22 ar
  36   21   23 ar
  37   22   28 1
  38   22   26 ar
  39   23   24 ar
  40   23   27 1
  41   24   25 ar
  42   24   40 1
  43   25   26 ar
  44   25   41 1
  45   26   42 1

#	End of record

