#	Name: ASD03930157
#	Creating user name:	WinNT
#	Creation time:	15. 06. 2019 20:47

#	Modifying user name:	WinNT
#	Modification time:	15. 06. 2019 20:47

#	Program:	/corina/corina34_cracker 3.40 0067  02.08.2006

@<TRIPOS>MOLECULE
ASD03930157
  59   62    0    0    0
SMALL
NO_CHARGES


@<TRIPOS>ATOM
   1 N1            -0.0169     1.3951     0.0097 N.pl3   
   2 N2             0.0021    -0.0041     0.0020 N.2     
   3 C3             1.2415    -0.4101    -0.0120 C.2     
   4 C4             2.0753     0.7311    -0.0138 C.2     
   5 C5             1.2499     1.8386    -0.0000 C.2     
   6 C6             3.5481     0.7382    -0.0271 C.2     
   7 O7             4.1607    -0.3113    -0.0379 O.2     
   8 O8             4.2163     1.9084    -0.0273 O.3     
   9 C9             1.7035    -1.8445    -0.0237 C.3     
  10 F10            0.5947    -2.6907    -0.1327 F       
  11 F11            2.5565    -2.0509    -1.1131 F       
  12 F12            2.3880    -2.1236     1.1640 F       
  13 C13           -1.2174     2.2346     0.0202 C.3     
  14 C14           -4.7295     0.6201    -4.2648 C.3     
  15 C15           -5.7916    -0.1025    -3.4092 C.3     
  16 C16           -4.9937    -0.4858    -2.1448 C.3     
  17 C17           -3.8810     0.5364    -2.0536 C.ar    
  18 C18           -3.0656     0.8829    -0.9891 C.ar    
  19 C19           -2.1021     1.8605    -1.1411 C.ar    
  20 C20           -1.9503     2.4961    -2.3594 C.ar    
  21 C21           -2.7624     2.1520    -3.4221 C.ar    
  22 C22           -3.7292     1.1718    -3.2717 C.ar    
  23 N23           -4.0762    -0.3275    -5.1711 N.am    
  24 C24           -3.5150     0.1117    -6.3151 C.2     
  25 O25           -3.5508     1.2936    -6.5947 O.2     
  26 O26           -2.9145    -0.7592    -7.1480 O.3     
  27 C27           -2.3316    -0.2156    -8.3617 C.3     
  28 C28           -1.7095    -1.3300    -9.1630 C.ar    
  29 C29           -2.4617    -2.0082   -10.1037 C.ar    
  30 C30           -1.8911    -3.0305   -10.8387 C.ar    
  31 C31           -0.5680    -3.3743   -10.6332 C.ar    
  32 C32            0.1845    -2.6954    -9.6931 C.ar    
  33 C33           -0.3849    -1.6703    -8.9612 C.ar    
  34 C34            5.6666     1.8394    -0.0408 C.3     
  35 C35            6.2446     3.2560    -0.0389 C.3     
  36 H36            1.5658     2.8713     0.0025 H       
  37 H37           -1.7593     2.0822     0.9536 H       
  38 H38           -0.9290     3.2822    -0.0656 H       
  39 H39           -5.1876     1.4313    -4.8306 H       
  40 H40           -6.6121     0.5705    -3.1604 H       
  41 H41           -6.1602    -0.9925    -3.9194 H       
  42 H42           -5.6321    -0.4296    -1.2632 H       
  43 H43           -4.5787    -1.4883    -2.2489 H       
  44 H44           -3.1836     0.3868    -0.0370 H       
  45 H45           -1.1971     3.2606    -2.4802 H       
  46 H46           -2.6432     2.6489    -4.3736 H       
  47 H47           -4.0476    -1.2711    -4.9479 H       
  48 H48           -3.1092     0.2672    -8.9536 H       
  49 H49           -1.5664     0.5157    -8.1013 H       
  50 H50           -3.4954    -1.7397   -10.2642 H       
  51 H51           -2.4790    -3.5608   -11.5732 H       
  52 H52           -0.1224    -4.1734   -11.2070 H       
  53 H53            1.2181    -2.9642    -9.5324 H       
  54 H54            0.2041    -1.1375    -8.2293 H       
  55 H55            6.0131     1.3044     0.8434 H       
  56 H56            5.9970     1.3133    -0.9364 H       
  57 H57            5.9142     3.7820     0.8567 H       
  58 H58            7.3334     3.2042    -0.0490 H       
  59 H59            5.8981     3.7910    -0.9231 H       
@<TRIPOS>BOND
   1    1    2 1
   2    1    5 1
   3    1   13 1
   4    2    3 2
   5    3    4 1
   6    3    9 1
   7    4    5 2
   8    4    6 1
   9    5   36 1
  10    6    7 2
  11    6    8 1
  12    8   34 1
  13    9   10 1
  14    9   11 1
  15    9   12 1
  16   13   19 1
  17   13   37 1
  18   13   38 1
  19   14   15 1
  20   14   22 1
  21   14   23 1
  22   14   39 1
  23   15   16 1
  24   15   40 1
  25   15   41 1
  26   16   17 1
  27   16   42 1
  28   16   43 1
  29   17   18 ar
  30   17   22 ar
  31   18   19 ar
  32   18   44 1
  33   19   20 ar
  34   20   21 ar
  35   20   45 1
  36   21   22 ar
  37   21   46 1
  38   23   24 am
  39   23   47 1
  40   24   25 2
  41   24   26 1
  42   26   27 1
  43   27   28 1
  44   27   48 1
  45   27   49 1
  46   28   29 ar
  47   28   33 ar
  48   29   30 ar
  49   29   50 1
  50   30   31 ar
  51   30   51 1
  52   31   32 ar
  53   31   52 1
  54   32   33 ar
  55   32   53 1
  56   33   54 1
  57   34   35 1
  58   34   55 1
  59   34   56 1
  60   35   57 1
  61   35   58 1
  62   35   59 1

#	End of record

