#	Name: ASD02590044
#	Creating user name:	WinNT
#	Creation time:	15. 06. 2019 20:25

#	Modifying user name:	WinNT
#	Modification time:	15. 06. 2019 20:25

#	Program:	/corina/corina34_cracker 3.40 0067  02.08.2006

@<TRIPOS>MOLECULE
ASD02590044
  32   34    0    0    0
SMALL
NO_CHARGES


@<TRIPOS>ATOM
   1 C1            -0.0168     1.3881     0.0097 C.ar    
   2 C2             0.0021    -0.0041     0.0020 C.ar    
   3 C3            -1.1767    -0.7182     0.0099 C.ar    
   4 C4            -2.3920    -0.0482     0.0256 C.ar    
   5 C5            -2.4200     1.3581     0.0334 C.ar    
   6 C6            -1.2161     2.0707     0.0305 C.ar    
   7 N7            -3.7114    -0.4591     0.0365 N.pl3   
   8 C8            -4.4861     0.6687     0.0502 C.2     
   9 N9            -3.7216     1.7324     0.0483 N.2     
  10 C10           -5.9660     0.6845     0.0643 C.ar    
  11 C11           -6.6429     1.9007     0.0776 C.ar    
  12 C12           -8.0339     1.8979     0.0907 C.ar    
  13 C13           -8.6940     0.6712     0.0899 C.ar    
  14 C14           -7.9536    -0.4954     0.0763 C.ar    
  15 N15           -6.6369    -0.4624     0.0586 N.ar    
  16 O16            1.1540     2.0795     0.0022 O.3     
  17 C17            2.3600     1.3131    -0.0134 C.3     
  18 O18           -8.7313     3.0625     0.1044 O.3     
  19 C19          -10.1569     2.9649     0.1172 C.3     
  20 H20            0.9465    -0.5277    -0.0105 H       
  21 H21           -1.1546    -1.7980     0.0035 H       
  22 H22           -1.2252     3.1507     0.0368 H       
  23 H23           -4.0290    -1.3757     0.0347 H       
  24 H24           -6.0965     2.8323     0.0781 H       
  25 H25           -9.7732     0.6324     0.1002 H       
  26 H26           -8.4620    -1.4482     0.0760 H       
  27 H27            2.3995     0.6798     0.8728 H       
  28 H28            2.3825     0.6894    -0.9070 H       
  29 H29            3.2178     1.9856    -0.0180 H       
  30 H30          -10.4927     2.4329    -0.7729 H       
  31 H31          -10.4759     2.4220     1.0070 H       
  32 H32          -10.5895     3.9653     0.1274 H       
@<TRIPOS>BOND
   1    1    2 ar
   2    1   16 1
   3    1    6 ar
   4    2    3 ar
   5    2   20 1
   6    3    4 ar
   7    3   21 1
   8    4    5 ar
   9    4    7 1
  10    5    6 ar
  11    5    9 1
  12    6   22 1
  13    7    8 1
  14    7   23 1
  15    8    9 2
  16    8   10 1
  17   10   11 ar
  18   10   15 ar
  19   11   12 ar
  20   11   24 1
  21   12   13 ar
  22   12   18 1
  23   13   14 ar
  24   13   25 1
  25   14   15 ar
  26   14   26 1
  27   16   17 1
  28   17   27 1
  29   17   28 1
  30   17   29 1
  31   18   19 1
  32   19   30 1
  33   19   31 1
  34   19   32 1

#	End of record

