#	Name: ASD01914058
#	Creating user name:	WinNT
#	Creation time:	15. 06. 2019 20:02

#	Modifying user name:	WinNT
#	Modification time:	15. 06. 2019 20:02

#	Program:	/corina/corina34_cracker 3.40 0067  02.08.2006

@<TRIPOS>MOLECULE
ASD01914058
  50   52    0    0    0
SMALL
NO_CHARGES


@<TRIPOS>ATOM
   1 C1            -0.0167     1.3784     0.0096 C.ar    
   2 C2             0.0021    -0.0041     0.0020 C.ar    
   3 C3             1.2074    -0.6814    -0.0131 C.ar    
   4 C4             2.3802     1.4093    -0.0131 C.ar    
   5 C5             1.1695     2.0865     0.0021 C.ar    
   6 O6             3.5484     2.1036    -0.0201 O.3     
   7 C7             4.7565     1.3405    -0.0357 C.3     
   8 C8             5.9399     2.2735    -0.0414 C.ar    
   9 N9             7.1606     1.7732    -0.0557 N.ar    
  10 C10            8.2282     2.5442    -0.0613 C.ar    
  11 C11            8.1003     3.9335    -0.0517 C.ar    
  12 C12            6.8174     4.4944    -0.0366 C.ar    
  13 C13            5.7285     3.6408    -0.0374 C.ar    
  14 C14            9.2990     4.7988    -0.0571 C.2     
  15 N15           10.5284     4.2469    -0.0712 N.am    
  16 O16            9.1757     6.0080    -0.0486 O.2     
  17 C17            2.3963     0.0221    -0.0207 C.ar    
  18 C18           12.9740     4.2333    -0.0929 C.3     
  19 C19           11.7163     5.1043    -0.0765 C.3     
  20 N20           14.1651     5.0931    -0.0982 N.3     
  21 C21           15.3840     4.3050     0.1244 C.3     
  22 C22           16.6112     5.2059    -0.0319 C.3     
  23 C23           16.5296     6.3514     0.9809 C.3     
  24 C24           15.2280     7.1268     0.7589 C.3     
  25 C25           14.0410     6.1702     0.8922 C.3     
  26 H26           -0.9595     1.9052     0.0169 H       
  27 H27           -0.9263    -0.5558     0.0083 H       
  28 H28            1.2194    -1.7613    -0.0187 H       
  29 H29            1.1543     3.1664     0.0077 H       
  30 H30            4.7976     0.7070     0.8504 H       
  31 H31            4.7810     0.7171    -0.9295 H       
  32 H32            9.2113     2.0972    -0.0730 H       
  33 H33            6.6813     5.5658    -0.0288 H       
  34 H34            4.7241     4.0376    -0.0259 H       
  35 H35           10.6268     3.2819    -0.0780 H       
  36 H36            3.3375    -0.5074    -0.0325 H       
  37 H37           12.9880     3.5986     0.7932 H       
  38 H38           12.9723     3.6094    -0.9867 H       
  39 H39           11.7023     5.7390    -0.9626 H       
  40 H40           11.7180     5.7282     0.8173 H       
  41 H41           15.3669     3.8859     1.1304 H       
  42 H42           15.4319     3.4964    -0.6050 H       
  43 H43           17.5151     4.6242     0.1487 H       
  44 H44           16.6364     5.6145    -1.0421 H       
  45 H45           16.5435     5.9452     1.9923 H       
  46 H46           17.3796     7.0199     0.8441 H       
  47 H47           15.1438     7.9175     1.5044 H       
  48 H48           15.2315     7.5656    -0.2389 H       
  49 H49           13.1134     6.7163     0.7205 H       
  50 H50           14.0301     5.7424     1.8947 H       
@<TRIPOS>BOND
   1    1    2 ar
   2    1    5 ar
   3    1   26 1
   4    2    3 ar
   5    2   27 1
   6    3   17 ar
   7    3   28 1
   8    4    5 ar
   9    4    6 1
  10    4   17 ar
  11    5   29 1
  12    6    7 1
  13    7    8 1
  14    7   30 1
  15    7   31 1
  16    8    9 ar
  17    8   13 ar
  18    9   10 ar
  19   10   11 ar
  20   10   32 1
  21   11   12 ar
  22   11   14 1
  23   12   13 ar
  24   12   33 1
  25   13   34 1
  26   14   15 am
  27   14   16 2
  28   15   19 1
  29   15   35 1
  30   17   36 1
  31   18   20 1
  32   18   19 1
  33   18   37 1
  34   18   38 1
  35   19   39 1
  36   19   40 1
  37   20   21 1
  38   20   25 1
  39   21   22 1
  40   21   41 1
  41   21   42 1
  42   22   23 1
  43   22   43 1
  44   22   44 1
  45   23   24 1
  46   23   45 1
  47   23   46 1
  48   24   25 1
  49   24   47 1
  50   24   48 1
  51   25   49 1
  52   25   50 1

#	End of record

