#	Name: ASD01813797
#	Creating user name:	WinNT
#	Creation time:	15. 06. 2019 19:31

#	Modifying user name:	WinNT
#	Modification time:	15. 06. 2019 19:31

#	Program:	/corina/corina34_cracker 3.40 0067  02.08.2006

@<TRIPOS>MOLECULE
ASD01813797
  67   70    0    0    0
SMALL
NO_CHARGES


@<TRIPOS>ATOM
   1 C1            -0.0169     1.3972     0.0097 C.2     
   2 C2             0.0021    -0.0041     0.0020 C.2     
   3 C3             1.1986    -0.6593    -0.0129 C.2     
   4 C4             2.3918     0.0821    -0.0204 C.2     
   5 N5             2.3437     1.4497    -0.0122 N.am    
   6 C6             1.1421     2.0937     0.0024 C.2     
   7 C7             3.6227    -0.5889    -0.0356 C.2     
   8 C8             4.7877     0.1218    -0.0425 C.2     
   9 C9             4.7345     1.5280    -0.0346 C.2     
  10 C10            3.4812     2.1736    -0.0189 C.2     
  11 O11            3.4258     3.3917    -0.0123 O.2     
  12 C12            5.9703     2.3140    -0.0413 C.2     
  13 O13            5.9124     3.6618    -0.0337 O.3     
  14 O14            7.0487     1.7516    -0.0537 O.2     
  15 C15            3.6593    -2.0954    -0.0439 C.3     
  16 N16            3.7787    -2.5747    -1.4274 N.3     
  17 C17            4.0549    -4.0171    -1.4628 C.3     
  18 C18            4.3510    -4.4418    -2.9051 C.3     
  19 N19            3.2384    -4.0004    -3.7599 N.am    
  20 C20            2.8130    -2.5949    -3.6777 C.3     
  21 C21            2.5774    -2.2429    -2.2050 C.3     
  22 C22            2.6253    -4.8609    -4.5966 C.2     
  23 C23            5.2477    -4.3222    -0.5938 C.ar    
  24 O24            1.6086    -4.4378    -5.3712 O.3     
  25 O25            2.9901    -6.0186    -4.6519 O.2     
  26 C26            0.9953    -5.4192    -6.2481 C.3     
  27 C27            0.4246    -6.5654    -5.4106 C.3     
  28 C28           -0.1322    -4.7583    -7.0436 C.3     
  29 C29            2.0473    -5.9680    -7.2141 C.3     
  30 C30            5.2532    -5.4563     0.1971 C.ar    
  31 C31            6.3454    -5.7383     0.9946 C.ar    
  32 C32            7.4373    -4.8824     1.0014 C.ar    
  33 C33            7.4292    -3.7451     0.2069 C.ar    
  34 C34            6.3369    -3.4706    -0.5931 C.ar    
  35 O35            8.5127    -5.1574     1.7854 O.3     
  36 C36            9.6008    -4.2320     1.7419 C.3     
  37 H37           -0.9605     1.9226     0.0170 H       
  38 H38           -0.9233    -0.5609     0.0082 H       
  39 H39            1.2282    -1.7389    -0.0187 H       
  40 H40            1.1156     3.1733     0.0087 H       
  41 H41            5.7393    -0.3889    -0.0536 H       
  42 H42            6.7544     4.1373    -0.0385 H       
  43 H43            4.5153    -2.4412     0.5356 H       
  44 H44            2.7412    -2.4836     0.3971 H       
  45 H45            3.1865    -4.5628    -1.0940 H       
  46 H46            5.2777    -3.9764    -3.2410 H       
  47 H47            4.4434    -5.5267    -2.9557 H       
  48 H48            3.5918    -1.9520    -4.0878 H       
  49 H49            1.8886    -2.4587    -4.2391 H       
  50 H50            1.7296    -2.8133    -1.8258 H       
  51 H51            2.3687    -1.1768    -2.1148 H       
  52 H52           -0.3248    -6.1745    -4.7224 H       
  53 H53           -0.0358    -7.3022    -6.0689 H       
  54 H54            1.2279    -7.0362    -4.8439 H       
  55 H55            0.2744    -3.9417    -7.6403 H       
  56 H56           -0.5926    -5.4951    -7.7019 H       
  57 H57           -0.8816    -4.3674    -6.3554 H       
  58 H58            2.8505    -6.4388    -6.6473 H       
  59 H59            1.5869    -6.7047    -7.8724 H       
  60 H60            2.4538    -5.1514    -7.8107 H       
  61 H61            4.4029    -6.1221     0.1917 H       
  62 H62            6.3492    -6.6240     1.6125 H       
  63 H63            8.2780    -3.0773     0.2105 H       
  64 H64            6.3302    -2.5854    -1.2118 H       
  65 H65            9.9874    -4.1734     0.7245 H       
  66 H66            9.2535    -3.2477     2.0559 H       
  67 H67           10.3915    -4.5692     2.4122 H       
@<TRIPOS>BOND
   1    1    2 1
   2    1    6 2
   3    1   37 1
   4    2    3 2
   5    2   38 1
   6    3    4 1
   7    3   39 1
   8    4    5 1
   9    4    7 2
  10    5    6 1
  11    5   10 am
  12    6   40 1
  13    7    8 1
  14    7   15 1
  15    8    9 2
  16    8   41 1
  17    9   10 1
  18    9   12 1
  19   10   11 2
  20   12   13 1
  21   12   14 2
  22   13   42 1
  23   15   16 1
  24   15   43 1
  25   15   44 1
  26   16   17 1
  27   16   21 1
  28   17   18 1
  29   17   23 1
  30   17   45 1
  31   18   19 1
  32   18   46 1
  33   18   47 1
  34   19   20 1
  35   19   22 am
  36   20   21 1
  37   20   48 1
  38   20   49 1
  39   21   50 1
  40   21   51 1
  41   22   24 1
  42   22   25 2
  43   23   30 ar
  44   23   34 ar
  45   24   26 1
  46   26   27 1
  47   26   28 1
  48   26   29 1
  49   27   52 1
  50   27   53 1
  51   27   54 1
  52   28   55 1
  53   28   56 1
  54   28   57 1
  55   29   58 1
  56   29   59 1
  57   29   60 1
  58   30   31 ar
  59   30   61 1
  60   31   32 ar
  61   31   62 1
  62   32   33 ar
  63   32   35 1
  64   33   34 ar
  65   33   63 1
  66   34   64 1
  67   35   36 1
  68   36   65 1
  69   36   66 1
  70   36   67 1

#	End of record

