#	Name: ASD04640029
#	Creating user name:	WinNT
#	Creation time:	15. 06. 2019 20:52

#	Modifying user name:	WinNT
#	Modification time:	15. 06. 2019 20:52

#	Program:	/corina/corina34_cracker 3.40 0067  02.08.2006

@<TRIPOS>MOLECULE
ASD04640029
  55   59    0    0    0
SMALL
NO_CHARGES


@<TRIPOS>ATOM
   1 C1            -0.0184     1.5023     0.0103 C.ar    
   2 C2             0.0021    -0.0041     0.0020 C.3     
   3 N3             1.3153    -0.4974    -0.4245 N.3     
   4 C4             2.3782     0.1208     0.3840 C.3     
   5 C5             2.5018     1.5903    -0.0193 C.3     
   6 C6             0.4125    -2.5710    -1.3639 C.3     
   7 C7             0.4159    -4.0931    -1.5195 C.3     
   8 C8            -0.7560    -3.3978    -0.8237 C.3     
   9 N9             0.1009    -6.7249    -4.2288 N.am    
  10 C10            0.1928    -8.0523    -4.4433 C.2     
  11 C11           -0.0430    -8.5977    -5.7882 C.2     
  12 O12            0.4709    -8.7991    -3.5242 O.2     
  13 C13            1.1444     2.2464     0.0032 C.ar    
  14 C14            1.0831     3.6330     0.0157 C.ar    
  15 C15           -0.1328     4.2804     0.0331 C.ar    
  16 C16           -1.3129     3.5344     0.0380 C.ar    
  17 C17           -1.2459     2.1416     0.0313 C.ar    
  18 C18           -2.5834     4.1949     0.0551 C.1     
  19 N19           -3.5912     4.7189     0.0686 N.1     
  20 C20            0.0151    -9.9125    -6.1266 C.2     
  21 N21           -0.3650    -7.8556    -6.9090 N.pl3   
  22 C22           -0.2731   -10.0115    -7.5081 C.ar    
  23 C23           -0.3591   -11.0858    -8.4046 C.ar    
  24 C24           -0.5089    -8.7034    -7.9779 C.ar    
  25 N25           -0.8086    -8.5046    -9.2557 N.ar    
  26 C26           -0.8898    -9.5041   -10.1075 C.ar    
  27 C27           -0.6678   -10.8153    -9.7120 C.ar    
  28 C28            1.3783    -1.9629    -0.3449 C.3     
  29 C29            0.1705    -4.6607    -2.9190 C.3     
  30 C30            0.3359    -6.1814    -2.8888 C.3     
  31 H31           -0.2120    -0.3723     1.0054 H       
  32 H32           -0.7604    -0.3704    -0.6853 H       
  33 H33            2.1215     0.0515     1.4411 H       
  34 H34            3.3230    -0.3903     0.1993 H       
  35 H35            3.1630     2.1029     0.6794 H       
  36 H36            2.9188     1.6559    -1.0242 H       
  37 H37            0.2355    -1.9740    -2.2585 H       
  38 H38            1.1065    -4.6612    -0.8963 H       
  39 H39           -0.8367    -3.5086     0.2577 H       
  40 H40           -1.7018    -3.3448    -1.3629 H       
  41 H41           -0.1208    -6.1294    -4.9617 H       
  42 H42            1.9965     4.2094     0.0120 H       
  43 H43           -0.1729     5.3596     0.0433 H       
  44 H44           -2.1555     1.5594     0.0348 H       
  45 H45            0.2407   -10.7330    -5.4615 H       
  46 H46           -0.4723    -6.8919    -6.9354 H       
  47 H47           -0.1863   -12.0992    -8.0738 H       
  48 H48           -1.1363    -9.2992   -11.1388 H       
  49 H49           -0.7422   -11.6189   -10.4297 H       
  50 H50            2.3932    -2.2953    -0.5630 H       
  51 H51            1.0982    -2.2847     0.6581 H       
  52 H52           -0.8409    -4.4115    -3.2399 H       
  53 H53            0.8893    -4.2308    -3.6166 H       
  54 H54           -0.3829    -6.6113    -2.1912 H       
  55 H55            1.3473    -6.4306    -2.5679 H       
@<TRIPOS>BOND
   1    1    2 1
   2    1   13 ar
   3    1   17 ar
   4    2    3 1
   5    2   31 1
   6    2   32 1
   7    3    4 1
   8    3   28 1
   9    4    5 1
  10    4   33 1
  11    4   34 1
  12    5   13 1
  13    5   35 1
  14    5   36 1
  15    6    7 1
  16    6    8 1
  17    6   28 1
  18    6   37 1
  19    7   29 1
  20    7    8 1
  21    7   38 1
  22    8   39 1
  23    8   40 1
  24    9   10 am
  25    9   30 1
  26    9   41 1
  27   10   11 1
  28   10   12 2
  29   11   21 1
  30   11   20 2
  31   13   14 ar
  32   14   15 ar
  33   14   42 1
  34   15   16 ar
  35   15   43 1
  36   16   17 ar
  37   16   18 1
  38   17   44 1
  39   18   19 3
  40   20   22 1
  41   20   45 1
  42   21   24 1
  43   21   46 1
  44   22   24 ar
  45   22   23 ar
  46   23   27 ar
  47   23   47 1
  48   24   25 ar
  49   25   26 ar
  50   26   27 ar
  51   26   48 1
  52   27   49 1
  53   28   50 1
  54   28   51 1
  55   29   30 1
  56   29   52 1
  57   29   53 1
  58   30   54 1
  59   30   55 1

#	End of record

