#	Name: ASD05060017
#	Creating user name:	WinNT
#	Creation time:	15. 06. 2019 20:56

#	Modifying user name:	WinNT
#	Modification time:	15. 06. 2019 20:56

#	Program:	/corina/corina34_cracker 3.40 0067  02.08.2006

@<TRIPOS>MOLECULE
ASD05060017
 126  126    0    0    0
SMALL
NO_CHARGES


@<TRIPOS>ATOM
   1 C1            -2.1613    -3.2097    -0.2514 C.2     
   2 C2            -1.2234    -2.7307     0.8265 C.3     
   3 O3            -1.8500    -3.1036    -1.4140 O.2     
   4 O4            -3.3401    -3.7593     0.0803 O.3     
   5 N5            -2.8319    -0.0011    -2.5868 N.3     
   6 N6            -3.4793     1.0843    -3.3055 N.3     
   7 C7            -4.7906     0.6668    -3.8196 C.3     
   8 C8            -4.6122    -0.0257    -5.1462 C.2     
   9 N9            -5.3118    -1.1736    -5.3885 N.am    
  10 C10           -5.0800    -1.7910    -6.7141 C.3     
  11 C11           -5.4485    -3.2503    -6.6364 C.2     
  12 N12           -4.7771    -4.1445    -7.4126 N.am    
  13 C13           -5.1819    -5.5592    -7.2916 C.3     
  14 C14           -3.9520    -6.4005    -7.0679 C.2     
  15 N15           -4.0267    -7.4590    -6.2079 N.am    
  16 C16           -2.7773    -8.2368    -6.0472 C.3     
  17 C17           -2.4484    -8.3227    -4.5789 C.2     
  18 N18           -1.1440    -8.3933    -4.1965 N.am    
  19 C19           -0.8837    -8.4746    -2.7455 C.3     
  20 C20            0.1107    -7.4067    -2.3690 C.2     
  21 N21            0.1606    -6.9824    -1.0716 N.am    
  22 C22            1.1612    -5.9295    -0.7852 C.3     
  23 C23            0.4678    -4.7817    -0.0974 C.2     
  24 C24            0.7719    -3.3825    -0.4971 C.2     
  25 C25            0.0760    -2.2349     0.1887 C.3     
  26 N26           -0.2303    -1.1956    -0.8143 N.am    
  27 C27           -1.4255    -0.5574    -0.6848 C.2     
  28 C28           -1.7961     0.5119    -1.6802 C.3     
  29 O29           -2.1817    -0.8453     0.2186 O.2     
  30 O30            1.5769    -3.1654    -1.3710 O.2     
  31 O31           -0.3354    -4.9986     0.7783 O.2     
  32 O32            0.8534    -6.9329    -3.2026 O.2     
  33 O33           -3.3335    -8.3284    -3.7498 O.2     
  34 O34           -2.9146    -6.1423    -7.6407 O.2     
  35 O35           -6.3313    -3.6227    -5.8929 O.2     
  36 O36           -3.8615     0.4283    -5.9836 O.2     
  37 C37           -2.9729    -9.6450    -6.6127 C.3     
  38 C38            2.2520    -6.4923     0.1284 C.3     
  39 C39            3.0211    -7.5887    -0.6113 C.3     
  40 C40            3.7648    -6.9767    -1.8001 C.3     
  41 C41            4.0279    -8.2368     0.3412 C.3     
  42 C42           -5.4453    -0.2951    -2.8261 C.3     
  43 C43           -5.6296     0.4091    -1.4804 C.3     
  44 C44           -6.6216     1.5629    -1.6402 C.3     
  45 C45           -6.1685    -0.5880    -0.4526 C.3     
  46 C46           -0.5591     0.9057    -2.4900 C.3     
  47 O47           -0.9017     1.9467    -3.4071 O.3     
  48 C48           -6.1353    -5.7198    -6.1058 C.3     
  49 C49           -5.5303    -5.0499    -4.8705 C.3     
  50 C50           -4.8036    -6.0986    -4.0260 C.3     
  51 C51           -7.4765    -5.0623    -6.4371 C.3     
  52 C52           -5.9506    -1.0967    -7.7633 C.3     
  53 C53           -5.5049     0.3593    -7.9133 C.3     
  54 C54           -6.3755     1.0536    -8.9625 C.3     
  55 C55           -5.9298     2.5096    -9.1125 C.3     
  56 N56           -6.7657     3.1762   -10.1199 N.3     
  57 C57           -2.1885    -8.2538    -1.9775 C.3     
  58 C58           -2.6681    -6.8422    -2.1974 C.2     
  59 O59           -2.1217    -6.1372    -3.0192 O.2     
  60 N60           -3.7043    -6.3632    -1.4808 N.am    
  61 H61           -1.6909    -1.9157     1.3791 H       
  62 H62           -1.0031    -3.5523     1.5081 H       
  63 H63           -3.9080    -4.0516    -0.6458 H       
  64 H64           -3.5084    -0.5569    -2.0852 H       
  65 H65           -3.5636     1.9040    -2.7231 H       
  66 H66           -5.4258     1.5430    -3.9495 H       
  67 H67           -5.9191    -1.5578    -4.7369 H       
  68 H68           -4.0286    -1.6930    -6.9845 H       
  69 H69           -4.0692    -3.8665    -8.0147 H       
  70 H70           -5.6795    -5.8763    -8.2081 H       
  71 H71           -4.8426    -7.6854    -5.7346 H       
  72 H72           -1.9651    -7.7375    -6.5754 H       
  73 H73           -0.4220    -8.3900    -4.8444 H       
  74 H74           -0.4759    -9.4556    -2.5019 H       
  75 H75           -0.4201    -7.3459    -0.3849 H       
  76 H76            1.6049    -5.5827    -1.7184 H       
  77 H77            0.7265    -1.8212     0.9592 H       
  78 H78            0.3887    -0.9785    -1.5289 H       
  79 H79           -2.1768     1.3852    -1.1505 H       
  80 H80           -3.2251    -9.5797    -7.6711 H       
  81 H81           -2.0519   -10.2156    -6.4932 H       
  82 H82           -3.7809   -10.1428    -6.0766 H       
  83 H83            2.9383    -5.6935     0.4096 H       
  84 H84            1.7947    -6.9109     1.0249 H       
  85 H85            2.3220    -8.3442    -0.9700 H       
  86 H86            4.3128    -7.7578    -2.3271 H       
  87 H87            3.0476    -6.5150    -2.4787 H       
  88 H88            4.4639    -6.2212    -1.4414 H       
  89 H89            3.4980    -8.6728     1.1881 H       
  90 H90            4.5758    -9.0179    -0.1858 H       
  91 H91            4.7270    -7.4813     0.6999 H       
  92 H92           -6.4170    -0.6072    -3.2090 H       
  93 H93           -4.8087    -1.1701    -2.6942 H       
  94 H94           -4.6704     0.7991    -1.1400 H       
  95 H95           -7.5808     1.1729    -1.9806 H       
  96 H96           -6.7529     2.0646    -0.6815 H       
  97 H97           -6.2377     2.2733    -2.3724 H       
  98 H98           -5.4618    -1.4101    -0.3387 H       
  99 H99           -6.2998    -0.0863     0.5062 H       
 100 H100          -7.1277    -0.9781    -0.7929 H       
 101 H101           0.2202     1.2586    -1.8144 H       
 102 H102          -0.1958     0.0394    -3.0428 H       
 103 H103          -0.1636     2.2469    -3.9549 H       
 104 H104          -6.2901    -6.7799    -5.9051 H       
 105 H105          -4.8230    -4.2818    -5.1834 H       
 106 H106          -6.3241    -4.5936    -4.2791 H       
 107 H107          -3.9825    -6.5242    -4.6029 H       
 108 H108          -4.4095    -5.6296    -3.1245 H       
 109 H109          -5.5012    -6.8890    -3.7491 H       
 110 H110          -8.1305    -5.7916    -6.9152 H       
 111 H111          -7.9420    -4.7037    -5.5190 H       
 112 H112          -7.3126    -4.2231    -7.1131 H       
 113 H113          -5.8454    -1.6092    -8.7195 H       
 114 H114          -6.9935    -1.1268    -7.4477 H       
 115 H115          -5.6101     0.8718    -6.9571 H       
 116 H116          -4.4620     0.3893    -8.2289 H       
 117 H117          -6.2703     0.5411    -9.9188 H       
 118 H118          -7.4184     1.0235    -8.6469 H       
 119 H119          -6.0350     3.0221    -8.1563 H       
 120 H120          -4.8869     2.5396    -9.4281 H       
 121 H121          -7.7438     3.1055    -9.8824 H       
 122 H122          -6.4909     4.1399   -10.2374 H       
 123 H123          -2.9435    -8.9539    -2.3350 H       
 124 H124          -2.0161    -8.4174    -0.9137 H       
 125 H125          -4.1412    -6.9270    -0.8236 H       
 126 H126          -4.0130    -5.4546    -1.6224 H       
@<TRIPOS>BOND
   1    1    2 1
   2    1    3 2
   3    1    4 1
   4    2   25 1
   5    2   61 1
   6    2   62 1
   7    4   63 1
   8    5    6 1
   9    5   28 1
  10    5   64 1
  11    6    7 1
  12    6   65 1
  13    7    8 1
  14    7   42 1
  15    7   66 1
  16    8    9 am
  17    8   36 2
  18    9   10 1
  19    9   67 1
  20   10   11 1
  21   10   52 1
  22   10   68 1
  23   11   12 am
  24   11   35 2
  25   12   13 1
  26   12   69 1
  27   13   14 1
  28   13   48 1
  29   13   70 1
  30   14   15 am
  31   14   34 2
  32   15   16 1
  33   15   71 1
  34   16   17 1
  35   16   37 1
  36   16   72 1
  37   17   18 am
  38   17   33 2
  39   18   19 1
  40   18   73 1
  41   19   20 1
  42   19   57 1
  43   19   74 1
  44   20   21 am
  45   20   32 2
  46   21   22 1
  47   21   75 1
  48   22   23 1
  49   22   38 1
  50   22   76 1
  51   23   24 1
  52   23   31 2
  53   24   25 1
  54   24   30 2
  55   25   26 1
  56   25   77 1
  57   26   27 am
  58   26   78 1
  59   27   28 1
  60   27   29 2
  61   28   46 1
  62   28   79 1
  63   37   80 1
  64   37   81 1
  65   37   82 1
  66   38   39 1
  67   38   83 1
  68   38   84 1
  69   39   40 1
  70   39   41 1
  71   39   85 1
  72   40   86 1
  73   40   87 1
  74   40   88 1
  75   41   89 1
  76   41   90 1
  77   41   91 1
  78   42   43 1
  79   42   92 1
  80   42   93 1
  81   43   44 1
  82   43   45 1
  83   43   94 1
  84   44   95 1
  85   44   96 1
  86   44   97 1
  87   45   98 1
  88   45   99 1
  89   45  100 1
  90   46   47 1
  91   46  101 1
  92   46  102 1
  93   47  103 1
  94   48   49 1
  95   48   51 1
  96   48  104 1
  97   49   50 1
  98   49  105 1
  99   49  106 1
 100   50  107 1
 101   50  108 1
 102   50  109 1
 103   51  110 1
 104   51  111 1
 105   51  112 1
 106   52   53 1
 107   52  113 1
 108   52  114 1
 109   53   54 1
 110   53  115 1
 111   53  116 1
 112   54   55 1
 113   54  117 1
 114   54  118 1
 115   55   56 1
 116   55  119 1
 117   55  120 1
 118   56  121 1
 119   56  122 1
 120   57   58 1
 121   57  123 1
 122   57  124 1
 123   58   59 2
 124   58   60 am
 125   60  125 1
 126   60  126 1

#	End of record

