#	Name: ASD07932199
#	Creating user name:	WinNT
#	Creation time:	15. 06. 2019 21:14

#	Modifying user name:	WinNT
#	Modification time:	15. 06. 2019 21:14

#	Program:	/corina/corina34_cracker 3.40 0067  02.08.2006

@<TRIPOS>MOLECULE
ASD07932199
  67   69    0    0    0
SMALL
NO_CHARGES


@<TRIPOS>ATOM
   1 Cl1            0.0000     0.0000     0.0000 Cl      
   2 H2             0.0000     1.3700     0.0000 H       
   3 Cl3            5.0000     6.3700     5.0000 Cl      
   4 H4             5.0000     7.7400     5.0000 H       
   5 C5            10.9474    20.9464    18.7612 C.ar    
   6 C6            10.9662    19.5534    18.7535 C.ar    
   7 C7            12.1436    18.8689    18.7391 C.ar    
   8 C8            13.3576    19.5732    18.7314 C.ar    
   9 C9            13.3445    20.9926    18.7386 C.ar    
  10 C10           12.1050    21.6652    18.7540 C.ar    
  11 C11           14.5935    18.8990    18.7170 C.ar    
  12 C12           15.7361    19.6453    18.7105 C.ar    
  13 C13           15.6545    21.0461    18.7182 C.ar    
  14 N14           14.4921    21.6689    18.7321 N.ar    
  15 C15           16.9037    21.8442    18.7114 C.2     
  16 N16           16.8431    23.1906    18.7186 N.am    
  17 O17           17.9821    21.2846    18.6994 O.2     
  18 C18           18.0776    23.9794    18.7120 C.3     
  19 C19           17.8088    25.3526    19.3308 C.3     
  20 C20           19.0981    26.1764    19.3238 C.3     
  21 C21           19.5832    26.3522    17.8835 C.3     
  22 C22           19.8520    24.9790    17.2647 C.3     
  23 C23           18.5628    24.1552    17.2716 C.3     
  24 O24           17.3557    25.1884    20.6761 O.3     
  25 C25           14.6531    17.3932    18.7095 C.3     
  26 N26           14.4198    16.9007    17.3453 N.3     
  27 C27           15.5123    17.2980    16.4484 C.3     
  28 C28           15.3243    16.6777    15.0938 C.2     
  29 C29           14.5212    15.6591    14.8764 C.2     
  30 C30           13.7064    15.0210    15.9668 C.3     
  31 C31           14.2567    15.4377    17.3333 C.3     
  32 C32           14.4150    15.1204    13.5047 C.ar    
  33 F33           12.0656    23.0156    18.7612 F       
  34 C34           15.1608    15.6958    12.4753 C.ar    
  35 N35           13.6147    14.0888    13.2621 N.ar    
  36 C36           13.4927    13.5793    12.0533 C.ar    
  37 C37           14.1989    14.1039    10.9867 C.ar    
  38 C38           15.0508    15.1797    11.1964 C.ar    
  39 H39           10.0000    21.4650    18.7685 H       
  40 H40           10.0338    19.0085    18.7595 H       
  41 H41           12.1431    17.7889    18.7340 H       
  42 H42           16.7004    19.1591    18.6999 H       
  43 H43           15.9822    23.6373    18.7282 H       
  44 H44           18.8421    23.4627    19.2923 H       
  45 H45           17.0444    25.8693    18.7504 H       
  46 H46           18.9065    27.1547    19.7647 H       
  47 H47           19.8625    25.6597    19.9042 H       
  48 H48           18.8188    26.8688    17.3031 H       
  49 H49           20.5017    26.9390    17.8785 H       
  50 H50           20.1977    25.1042    16.2385 H       
  51 H51           20.6165    24.4623    17.8450 H       
  52 H52           18.7543    23.1769    16.8308 H       
  53 H53           17.7983    24.6718    16.6913 H       
  54 H54           17.1654    26.0201    21.1312 H       
  55 H55           15.6356    17.0668    19.0505 H       
  56 H56           13.8869    16.9959    19.3752 H       
  57 H57           15.5220    18.3836    16.3501 H       
  58 H58           16.4623    16.9674    16.8682 H       
  59 H59           15.8740    17.0872    14.2591 H       
  60 H60           12.6688    15.3433    15.8801 H       
  61 H61           13.7578    13.9365    15.8705 H       
  62 H62           15.2220    14.9600    17.5004 H       
  63 H63           13.5578    15.1408    18.1154 H       
  64 H64           15.8144    16.5324    12.6739 H       
  65 H65           12.8321    12.7400    11.8934 H       
  66 H66           14.0918    13.6780    10.0000 H       
  67 H67           15.6124    15.6066    10.3786 H       
@<TRIPOS>BOND
   1    1    2 1
   2    3    4 1
   3    5    6 ar
   4    5   10 ar
   5    5   39 1
   6    6    7 ar
   7    6   40 1
   8    7    8 ar
   9    7   41 1
  10    8    9 ar
  11    8   11 ar
  12    9   10 ar
  13    9   14 ar
  14   10   33 1
  15   11   12 ar
  16   11   25 1
  17   12   13 ar
  18   12   42 1
  19   13   14 ar
  20   13   15 1
  21   15   16 am
  22   15   17 2
  23   16   18 1
  24   16   43 1
  25   18   19 1
  26   18   23 1
  27   18   44 1
  28   19   20 1
  29   19   24 1
  30   19   45 1
  31   20   21 1
  32   20   46 1
  33   20   47 1
  34   21   22 1
  35   21   48 1
  36   21   49 1
  37   22   23 1
  38   22   50 1
  39   22   51 1
  40   23   52 1
  41   23   53 1
  42   24   54 1
  43   25   26 1
  44   25   55 1
  45   25   56 1
  46   26   27 1
  47   26   31 1
  48   27   28 1
  49   27   57 1
  50   27   58 1
  51   28   29 2
  52   28   59 1
  53   29   30 1
  54   29   32 1
  55   30   31 1
  56   30   60 1
  57   30   61 1
  58   31   62 1
  59   31   63 1
  60   32   34 ar
  61   32   35 ar
  62   34   38 ar
  63   34   64 1
  64   35   36 ar
  65   36   37 ar
  66   36   65 1
  67   37   38 ar
  68   37   66 1
  69   38   67 1

#	End of record

