#	Name: ASD01190223
#	Creating user name:	WinNT
#	Creation time:	15. 06. 2019 19:08

#	Modifying user name:	WinNT
#	Modification time:	15. 06. 2019 19:08

#	Program:	/corina/corina34_cracker 3.40 0067  02.08.2006

@<TRIPOS>MOLECULE
ASD01190223
  48   52    0    0    0
SMALL
NO_CHARGES


@<TRIPOS>ATOM
   1 C1            -0.0187     1.5258     0.0104 C.3     
   2 C2            -0.9585     2.6617     0.4193 C.3     
   3 N3             5.2689     3.4276     0.1980 N.pl3   
   4 N4             5.3934     3.5825     1.5825 N.2     
   5 C5             4.2856     3.2344     2.1734 C.2     
   6 C6             3.3417     2.8153     1.1420 C.ar    
   7 C7             2.0234     2.3465     1.1626 C.ar    
   8 C8             1.4009     2.0312    -0.0104 C.ar    
   9 C9             2.0637     2.1714    -1.2235 C.ar    
  10 C10            3.3511     2.6267    -1.2690 C.ar    
  11 C11            4.0117     2.9561    -0.0887 C.ar    
  12 C12            6.2642     3.7131    -0.7444 C.ar    
  13 C13            7.1317     4.7781    -0.5395 C.ar    
  14 C14            8.2317     4.2768    -2.6064 C.ar    
  15 C15            6.3898     2.9283    -1.8834 C.ar    
  16 C16            8.1127     5.0568    -1.4708 C.ar    
  17 C17            7.3729     3.2123    -2.8109 C.ar    
  18 C18            9.3030     4.5841    -3.6207 C.3     
  19 C19            0.1648    -1.6035     2.0915 C.ar    
  20 C20            0.6016    -0.8685     0.9724 C.ar    
  21 C21            1.5612    -1.4197     0.1206 C.ar    
  22 C22            2.0466    -2.6796     0.4172 C.ar    
  23 C23            1.5715    -3.3462     1.5359 C.ar    
  24 N24            0.6662    -2.8088     2.3258 N.ar    
  25 N25           -0.7706    -0.8319     2.7381 N.pl3   
  26 C26           -0.1352     0.3961     1.0011 C.2     
  27 C27           -0.9397     0.3539     2.0747 C.2     
  28 F28           -0.8503     3.7104    -0.5003 F       
  29 F29           -2.2764     2.1925     0.4387 F       
  30 F30           -0.6083     3.1209     1.6936 F       
  31 O31           -0.3764     1.0567    -1.2911 O.3     
  32 H32            4.0992     3.2522     3.2370 H       
  33 H33            1.5016     2.2344     2.1015 H       
  34 H34            1.5552     1.9170    -2.1417 H       
  35 H35            3.8552     2.7307    -2.2185 H       
  36 H36            7.0390     5.3879     0.3471 H       
  37 H37            5.7196     2.0967    -2.0435 H       
  38 H38            8.7873     5.8851    -1.3121 H       
  39 H39            7.4683     2.6052    -3.6989 H       
  40 H40           10.2101     4.0346    -3.3690 H       
  41 H41            8.9611     4.2861    -4.6119 H       
  42 H42            9.5127     5.6537    -3.6150 H       
  43 H43            1.9133    -0.8778    -0.7447 H       
  44 H44            2.7892    -3.1406    -0.2171 H       
  45 H45            1.9530    -4.3304     1.7646 H       
  46 H46           -1.2421    -1.0896     3.5456 H       
  47 H47           -1.6174     1.1401     2.3731 H       
  48 H48            0.1789     0.3345    -1.6153 H       
@<TRIPOS>BOND
   1    1    2 1
   2    1    8 1
   3    1   26 1
   4    1   31 1
   5    2   28 1
   6    2   29 1
   7    2   30 1
   8    3    4 1
   9    3   11 1
  10    3   12 1
  11    4    5 2
  12    5    6 1
  13    5   32 1
  14    6    7 ar
  15    6   11 ar
  16    7    8 ar
  17    7   33 1
  18    8    9 ar
  19    9   10 ar
  20    9   34 1
  21   10   11 ar
  22   10   35 1
  23   12   13 ar
  24   12   15 ar
  25   13   16 ar
  26   13   36 1
  27   14   16 ar
  28   14   17 ar
  29   14   18 1
  30   15   17 ar
  31   15   37 1
  32   16   38 1
  33   17   39 1
  34   18   40 1
  35   18   41 1
  36   18   42 1
  37   19   20 ar
  38   19   24 ar
  39   19   25 1
  40   20   21 ar
  41   20   26 1
  42   21   22 ar
  43   21   43 1
  44   22   23 ar
  45   22   44 1
  46   23   24 ar
  47   23   45 1
  48   25   27 1
  49   25   46 1
  50   26   27 2
  51   27   47 1
  52   31   48 1

#	End of record

