#	Name: ASD03180033
#	Creating user name:	WinNT
#	Creation time:	15. 06. 2019 20:33

#	Modifying user name:	WinNT
#	Modification time:	15. 06. 2019 20:33

#	Program:	/corina/corina34_cracker 3.40 0067  02.08.2006

@<TRIPOS>MOLECULE
ASD03180033
  51   53    0    0    0
SMALL
NO_CHARGES


@<TRIPOS>ATOM
   1 C1             7.4417     3.6362     1.7858 C.ar    
   2 C2             7.2005     4.9751     2.0304 C.ar    
   3 C3             5.9928     5.5383     1.6626 C.ar    
   4 C4             5.0266     4.7626     1.0498 C.ar    
   5 C5             5.2681     3.4238     0.8044 C.ar    
   6 C6             6.4753     2.8603     1.1735 C.ar    
   7 S7             4.0361     2.4348     0.0243 S.o2    
   8 O8             2.7833     3.0138     0.3627 O.2     
   9 N9             4.2145     2.6287    -1.6106 N.am    
  10 O10            4.3690     1.0825     0.3067 O.2     
  11 C11            3.4095     3.6245    -2.3223 C.3     
  12 C12            5.1773     1.8043    -2.3452 C.3     
  13 C13            4.4594     0.6454    -2.9874 C.ar    
  14 C14            4.1921     4.9063    -2.4479 C.2     
  15 N15            3.6475     5.9700    -3.0711 N.am    
  16 C16            4.4094     7.1279    -3.2755 C.ar    
  17 O17            5.3121     4.9806    -1.9882 O.2     
  18 C18            4.0096     0.7478    -4.2906 C.ar    
  19 C19            3.3511    -0.3148    -4.8802 C.ar    
  20 C20            3.1421    -1.4811    -4.1658 C.ar    
  21 C21            3.5925    -1.5829    -2.8616 C.ar    
  22 C22            4.2558    -0.5217    -2.2750 C.ar    
  23 C23            4.2332     7.8805    -4.4291 C.ar    
  24 C24            4.9839     9.0220    -4.6303 C.ar    
  25 C25            5.9144     9.4171    -3.6807 C.ar    
  26 C26            6.0918     8.6654    -2.5273 C.ar    
  27 C27            5.3366     7.5262    -2.3222 C.ar    
  28 Cl28           7.2570     9.1600    -1.3393 Cl      
  29 Cl29           2.3145    -2.8159    -4.9055 Cl      
  30 O30            6.6536    10.5412    -3.8798 O.3     
  31 C31            6.4193    11.2659    -5.0889 C.3     
  32 H32            8.3870     3.1972     2.0691 H       
  33 H33            7.9554     5.5812     2.5092 H       
  34 H34            5.8041     6.5843     1.8543 H       
  35 H35            4.0828     5.2024     0.7631 H       
  36 H36            6.6639     1.8143     0.9821 H       
  37 H37            3.1636     3.2501    -3.3160 H       
  38 H38            2.4905     3.8128    -1.7673 H       
  39 H39            5.6575     2.4067    -3.1164 H       
  40 H40            5.9328     1.4269    -1.6561 H       
  41 H41            2.7281     5.9339    -3.3781 H       
  42 H42            4.1725     1.6584    -4.8480 H       
  43 H43            2.9994    -0.2346    -5.8982 H       
  44 H44            3.4296    -2.4931    -2.3035 H       
  45 H45            4.6114    -0.6027    -1.2585 H       
  46 H46            3.5093     7.5729    -5.1692 H       
  47 H47            4.8467     9.6071    -5.5276 H       
  48 H48            5.4709     6.9437    -1.4228 H       
  49 H49            6.6278    10.6230    -5.9440 H       
  50 H50            5.3791    11.5897    -5.1227 H       
  51 H51            7.0725    12.1379    -5.1221 H       
@<TRIPOS>BOND
   1    1    2 ar
   2    1    6 ar
   3    1   32 1
   4    2    3 ar
   5    2   33 1
   6    3    4 ar
   7    3   34 1
   8    4    5 ar
   9    4   35 1
  10    5    6 ar
  11    5    7 1
  12    6   36 1
  13    7    8 2
  14    7    9 am
  15    7   10 2
  16    9   11 1
  17    9   12 1
  18   11   14 1
  19   11   37 1
  20   11   38 1
  21   12   13 1
  22   12   39 1
  23   12   40 1
  24   13   18 ar
  25   13   22 ar
  26   14   15 am
  27   14   17 2
  28   15   16 1
  29   15   41 1
  30   16   23 ar
  31   16   27 ar
  32   18   19 ar
  33   18   42 1
  34   19   20 ar
  35   19   43 1
  36   20   21 ar
  37   20   29 1
  38   21   22 ar
  39   21   44 1
  40   22   45 1
  41   23   24 ar
  42   23   46 1
  43   24   25 ar
  44   24   47 1
  45   25   26 ar
  46   25   30 1
  47   26   27 ar
  48   26   28 1
  49   27   48 1
  50   30   31 1
  51   31   49 1
  52   31   50 1
  53   31   51 1

#	End of record

