#	Name: ASD01151101
#	Creating user name:	WinNT
#	Creation time:	15. 06. 2019 19:05

#	Modifying user name:	WinNT
#	Modification time:	15. 06. 2019 19:05

#	Program:	/corina/corina34_cracker 3.40 0067  02.08.2006

@<TRIPOS>MOLECULE
ASD01151101
  61   64    0    0    0
SMALL
NO_CHARGES


@<TRIPOS>ATOM
   1 C1             1.9303     0.7419     2.5012 C.3     
   2 C2             1.2572    -0.3405     1.6549 C.3     
   3 C3             1.1813    -1.6412     2.4570 C.3     
   4 C4             0.5082    -2.7237     1.6107 C.3     
   5 C5             1.3742    -3.0403     0.4187 C.2     
   6 C6             2.7621    -3.0568     0.4119 C.2     
   7 C7             3.1723    -3.3920    -0.8711 C.2     
   8 N8             4.3838    -3.5475    -1.4240 N.2     
   9 C9             4.5130    -3.8755    -2.6909 C.2     
  10 C10            5.8879    -4.0438    -3.2847 C.3     
  11 C11            3.3850    -4.0691    -3.4884 C.2     
  12 C12            2.1406    -3.9144    -2.9398 C.2     
  13 N13            1.0099    -4.1003    -3.7058 N.pl3   
  14 C14            0.1363    -2.9667    -4.0383 C.3     
  15 C15           -0.0513    -2.9179    -5.5579 C.3     
  16 C16           -0.5661    -4.2732    -6.0481 C.3     
  17 C17            0.4619    -5.3593    -5.7229 C.3     
  18 C18            0.6585    -5.4347    -4.2103 C.3     
  19 C19            1.7866    -6.4175    -3.8901 C.3     
  20 C20            1.3541    -7.8335    -4.2760 C.3     
  21 O21            2.4401    -8.7377    -4.0637 O.3     
  22 N22            2.0367    -3.5724    -1.6176 N.pl3   
  23 N23            0.9379    -3.3507    -0.7803 N.2     
  24 C24            0.3224    -3.9674     2.4411 C.ar    
  25 C25            1.4252    -4.6452     2.9265 C.ar    
  26 C26            1.2554    -5.7860     3.6882 C.ar    
  27 C27           -0.0184    -6.2495     3.9649 C.ar    
  28 Cl28          -0.2325    -7.6819     4.9220 Cl      
  29 C29           -1.1217    -5.5707     3.4789 C.ar    
  30 C30           -0.9508    -4.4269     2.7220 C.ar    
  31 H31            2.9370     0.4206     2.7684 H       
  32 H32            1.9844     1.6686     1.9298 H       
  33 H33            1.3491     0.9078     3.4082 H       
  34 H34            0.2505    -0.0192     1.3877 H       
  35 H35            1.8385    -0.5064     0.7479 H       
  36 H36            2.1880    -1.9626     2.7242 H       
  37 H37            0.6001    -1.4754     3.3640 H       
  38 H38           -0.4633    -2.3662     1.2694 H       
  39 H39            3.4064    -2.8465     1.2527 H       
  40 H40            6.6394    -3.7690    -2.5445 H       
  41 H41            6.0315    -5.0832    -3.5797 H       
  42 H42            5.9872    -3.4008    -4.1592 H       
  43 H43            3.4925    -4.3381    -4.5288 H       
  44 H44           -0.8318    -3.0973    -3.5547 H       
  45 H45            0.5955    -2.0390    -3.6968 H       
  46 H46           -0.7732    -2.1414    -5.8106 H       
  47 H47            0.9034    -2.6971    -6.0354 H       
  48 H48           -1.5085    -4.5048    -5.5517 H       
  49 H49           -0.7238    -4.2335    -7.1259 H       
  50 H50            0.1051    -6.3205    -6.0931 H       
  51 H51            1.4117    -5.1155    -6.1988 H       
  52 H52           -0.2661    -5.7710    -3.7410 H       
  53 H53            2.6781    -6.1435    -4.4542 H       
  54 H54            2.0067    -6.3829    -2.8232 H       
  55 H55            0.5055    -8.1343    -3.6617 H       
  56 H56            1.0664    -7.8518    -5.3272 H       
  57 H57            2.2630    -9.6414    -4.3588 H       
  58 H58            2.4195    -4.2835     2.7101 H       
  59 H59            2.1170    -6.3157     4.0670 H       
  60 H60           -2.1163    -5.9322     3.6943 H       
  61 H61           -1.8120    -3.8942     2.3466 H       
@<TRIPOS>BOND
   1    1    2 1
   2    1   31 1
   3    1   32 1
   4    1   33 1
   5    2    3 1
   6    2   34 1
   7    2   35 1
   8    3    4 1
   9    3   36 1
  10    3   37 1
  11    4    5 1
  12    4   24 1
  13    4   38 1
  14    5   23 2
  15    5    6 1
  16    6    7 2
  17    6   39 1
  18    7   22 1
  19    7    8 1
  20    8    9 2
  21    9   10 1
  22    9   11 1
  23   10   40 1
  24   10   41 1
  25   10   42 1
  26   11   12 2
  27   11   43 1
  28   12   13 1
  29   12   22 1
  30   13   18 1
  31   13   14 1
  32   14   15 1
  33   14   44 1
  34   14   45 1
  35   15   16 1
  36   15   46 1
  37   15   47 1
  38   16   17 1
  39   16   48 1
  40   16   49 1
  41   17   18 1
  42   17   50 1
  43   17   51 1
  44   18   19 1
  45   18   52 1
  46   19   20 1
  47   19   53 1
  48   19   54 1
  49   20   21 1
  50   20   55 1
  51   20   56 1
  52   21   57 1
  53   22   23 1
  54   24   30 ar
  55   24   25 ar
  56   25   26 ar
  57   25   58 1
  58   26   27 ar
  59   26   59 1
  60   27   28 1
  61   27   29 ar
  62   29   30 ar
  63   29   60 1
  64   30   61 1

#	End of record

