#	Name: ASD07110021
#	Creating user name:	WinNT
#	Creation time:	15. 06. 2019 21:09

#	Modifying user name:	WinNT
#	Modification time:	15. 06. 2019 21:09

#	Program:	/corina/corina34_cracker 3.40 0067  02.08.2006

@<TRIPOS>MOLECULE
ASD07110021
 446  454    0    0    0
SMALL
NO_CHARGES


@<TRIPOS>ATOM
   1 C1             0.5672    10.8565    -8.8904 C.2     
   2 O2            -0.1300    10.3332    -9.7335 O.2     
   3 N3            -1.5073    11.8049    -8.0527 N.3     
   4 C4            -0.0553    11.7395    -7.8398 C.3     
   5 C5             2.1178     8.3894    -9.7889 C.2     
   6 O6             1.2234     8.1008    -9.0224 O.2     
   7 N7             1.8981    10.6439    -8.8897 N.am    
   8 C8             2.6323     9.8046    -9.8480 C.3     
   9 C9             4.1205     9.8394    -9.4412 C.3     
  10 C10            4.0621    10.2394    -7.9432 C.3     
  11 C11            2.8597    11.2195    -7.9318 C.3     
  12 C12            3.2278     5.1230   -10.9979 C.2     
  13 O13            4.3064     5.5556   -11.3446 O.2     
  14 N14            2.6516     7.4444   -10.5880 N.am    
  15 C15            2.1514     6.0686   -10.5307 C.3     
  16 C16            0.9256     5.9334   -11.4361 C.3     
  17 O17            1.3131     6.1384   -12.7962 O.3     
  18 C18            3.4043     1.6145   -12.0092 C.2     
  19 O19            2.2866     1.3045   -11.6549 O.2     
  20 N20            2.9917     3.7964   -11.0304 N.am    
  21 C21            4.0380     2.8771   -11.4845 C.3     
  22 C22            4.9608     2.5357   -10.3128 C.3     
  23 C23            5.7266     3.7892    -9.8848 C.3     
  24 C24            6.5448     3.4829    -8.6287 C.3     
  25 C25            6.6658     4.2228   -11.0121 C.3     
  26 C26            5.3055     2.4208   -14.2529 C.2     
  27 O27            4.2696     3.0510   -14.2773 O.2     
  28 N28            4.0796     0.8299   -12.8723 N.am    
  29 C29            5.3887     1.1381   -13.4662 C.3     
  30 C30            5.7523    -0.0310   -14.4057 C.3     
  31 C31            4.3717    -0.6641   -14.7229 C.3     
  32 C32            3.6308    -0.4824   -13.3721 C.3     
  33 C33            5.6252     3.7087   -17.0760 C.2     
  34 O34            5.2828     2.5653   -17.2911 O.2     
  35 N35            6.3822     2.8676   -14.9292 N.am    
  36 C36            6.2767     4.0662   -15.7650 C.3     
  37 C37            7.6747     4.6298   -16.0271 C.3     
  38 C38            8.2736     5.1112   -14.7307 C.2     
  39 C39            8.2239     6.3611   -14.2437 C.2     
  40 N40            8.8773     6.4203   -13.0429 N.pl3   
  41 C41            9.3760     5.1782   -12.7196 C.ar    
  42 C42           10.1024     4.6896   -11.6388 C.ar    
  43 C43           10.4633     3.3603   -11.6017 C.ar    
  44 C44           10.1094     2.5017   -12.6331 C.ar    
  45 C45            9.3963     2.9607   -13.7047 C.ar    
  46 C46            9.0147     4.3024   -13.7599 C.ar    
  47 C47            5.2107     5.3011   -20.3403 C.2     
  48 O48            5.5415     6.4238   -20.0224 O.2     
  49 N49            5.4232     4.6596   -18.0095 N.am    
  50 C50            4.7899     4.3120   -19.2840 C.3     
  51 C51            3.2687     4.3518   -19.1252 C.3     
  52 C52            2.8324     3.2535   -18.1900 C.ar    
  53 C53            2.7492     3.4964   -16.8314 C.ar    
  54 C54            2.3499     2.4913   -15.9720 C.ar    
  55 C55            2.0319     1.2374   -16.4732 C.ar    
  56 O56            1.6384     0.2470   -15.6299 O.3     
  57 C57            2.1157     0.9963   -17.8369 C.ar    
  58 C58            2.5105     2.0063   -18.6927 C.ar    
  59 C59            4.5055     6.9571   -22.8017 C.2     
  60 O60            3.6385     7.0214   -21.9561 O.2     
  61 N61            5.2193     4.9381   -21.6382 N.am    
  62 C62            5.5020     5.8270   -22.7747 C.3     
  63 C63            5.3730     4.9825   -24.0599 C.3     
  64 C64            4.4715     3.8022   -23.6112 C.3     
  65 C65            4.9532     3.5825   -22.1531 C.3     
  66 C66            3.9069     9.8997   -24.9596 C.2     
  67 O67            4.8371     9.6513   -25.6972 O.2     
  68 N68            4.5776     7.8962   -23.7657 N.am    
  69 C69            3.6088     8.9949   -23.7920 C.3     
  70 C70            2.8990    13.2456   -26.0330 C.2     
  71 O71            2.3343    13.4727   -24.9840 O.2     
  72 N72            3.1399    10.9849   -25.1843 N.am    
  73 C73            3.4297    11.8645   -26.3194 C.3     
  74 C74            2.7584    11.3110   -27.5779 C.3     
  75 C75            3.3856     9.9632   -27.9397 C.3     
  76 C76            2.7244     9.4180   -29.1793 C.2     
  77 O77            1.8419    10.0433   -29.7181 O.2     
  78 O78            3.1157     8.2378   -29.6849 O.3     
  79 C79            2.2647    16.2842   -27.9637 C.2     
  80 O80            2.4810    15.7260   -29.0185 O.2     
  81 N81            3.0519    14.2283   -26.9426 N.am    
  82 C82            2.5360    15.5709   -26.6642 C.3     
  83 C83            3.5706    16.3575   -25.8570 C.3     
  84 C84            3.7539    15.7021   -24.4866 C.3     
  85 C85            4.7885    16.4888   -23.6794 C.3     
  86 N86            4.9640    15.8613   -22.3673 N.pl3   
  87 C87            5.8498    16.3964   -21.4623 C.2     
  88 N88            6.0060    15.8381   -20.2949 N.2     
  89 N89            6.5710    17.5205   -21.7886 N.pl3   
  90 C90            1.5891    19.7250   -28.9969 C.2     
  91 O91            1.3772    20.1860   -27.8953 O.2     
  92 N92            1.7817    17.5424   -27.9537 N.am    
  93 C93            1.5179    18.2358   -29.2169 C.3     
  94 C94            0.1235    17.8611   -29.7229 C.3     
  95 C95            0.8363    22.6523   -29.3996 C.2     
  96 O96           -0.1314    21.9758   -29.1225 O.2     
  97 N97            1.8882    20.5445   -30.0242 N.am    
  98 C98            2.0857    21.9984   -29.9311 C.3     
  99 C99            2.3820    22.5127   -31.3556 C.3     
 100 C100           1.7766    21.4051   -32.2579 C.3     
 101 C101           2.0777    20.1305   -31.4264 C.3     
 102 C102          -0.4718    26.0585   -29.1766 C.2     
 103 O103           0.5065    26.5693   -29.6795 O.2     
 104 N104           0.7943    23.9890   -29.2322 N.am    
 105 C105          -0.4202    24.6247   -28.7155 C.3     
 106 C106          -0.4078    24.5809   -27.1862 C.3     
 107 C107          -0.4615    23.1255   -26.7173 C.3     
 108 C108           0.8735    25.2369   -26.6676 C.3     
 109 C109          -2.7104    28.8927   -28.6119 C.2     
 110 O110          -3.3953    28.2678   -27.8301 O.2     
 111 N111          -1.6050    26.7732   -29.0300 N.am    
 112 C112          -1.6280    28.1925   -29.3923 C.3     
 113 C113          -1.9075    28.3321   -30.8901 C.3     
 114 C114          -0.7461    27.7304   -31.6839 C.3     
 115 C115          -1.0214    27.8678   -33.1591 C.2     
 116 O116          -2.0419    28.3931   -33.5369 O.2     
 117 O117          -0.1330    27.4067   -34.0535 O.3     
 118 C118          -4.4177    32.1210   -28.7762 C.2     
 119 O119          -3.9081    32.3993   -29.8410 O.2     
 120 N120          -2.9175    30.2135   -28.7828 N.am    
 121 C121          -3.9697    30.8942   -28.0242 C.3     
 122 C122          -3.4261    31.3058   -26.6545 C.3     
 123 C123          -3.0874    30.0537   -25.8430 C.3     
 124 C124          -2.5519    30.4591   -24.4940 C.2     
 125 O125          -2.4515    31.6294   -24.2107 O.2     
 126 O126          -2.1866    29.5201   -23.6071 O.3     
 127 C127          -6.3989    35.1006   -28.0282 C.2     
 128 O128          -6.4433    34.8421   -26.8441 O.2     
 129 N129          -5.3845    32.9088   -28.2654 N.am    
 130 C130          -5.8200    34.1014   -28.9965 C.3     
 131 C131          -6.8849    33.7099   -30.0229 C.3     
 132 C132          -6.2634    32.7928   -31.0781 C.3     
 133 C133          -7.3536    32.3012   -32.0325 C.3     
 134 C134          -5.2057    33.5669   -31.8674 C.3     
 135 C135          -8.3978    38.1523   -28.2618 C.2     
 136 O136          -8.5978    37.9971   -29.4479 O.2     
 137 N137          -6.8672    36.2816   -28.4781 N.am    
 138 C138          -7.4299    37.2530   -27.5369 C.3     
 139 C139          -6.3018    38.0953   -26.9379 C.3     
 140 C140          -5.3879    37.2006   -26.0981 C.3     
 141 C141          -4.2768    38.0302   -25.5082 C.2     
 142 O142          -4.2215    39.2155   -25.7360 O.2     
 143 O143          -3.3485    37.4524   -24.7296 O.3     
 144 C144         -10.0895    41.3175   -27.5671 C.2     
 145 O145          -9.4438    41.5054   -26.5578 O.2     
 146 N146          -9.0411    39.1291   -27.5921 N.am    
 147 C147          -9.9820    40.0034   -28.2968 C.3     
 148 C148         -11.3574    39.3352   -28.3495 C.3     
 149 C149         -11.2746    38.0636   -29.1962 C.3     
 150 C150         -12.6500    37.3955   -29.2490 C.3     
 151 N151         -12.5706    36.1779   -30.0597 N.pl3   
 152 C152         -13.6915    35.4050   -30.2507 C.2     
 153 N153         -13.6209    34.3216   -30.9720 N.2     
 154 N154         -14.8867    35.7747   -29.6808 N.pl3   
 155 C155         -12.3395    44.1979   -27.6315 C.2     
 156 O156         -13.1241    43.6392   -28.3685 O.2     
 157 N157         -10.9032    42.2841   -28.0362 N.am    
 158 C158         -11.0078    43.5617   -27.3269 C.3     
 159 C159          -9.8819    44.4919   -27.7830 C.3     
 160 C160          -8.5535    43.9134   -27.3687 C.ar    
 161 C161          -7.8773    43.0575   -28.2179 C.ar    
 162 C162          -6.6587    42.5269   -27.8379 C.ar    
 163 C163          -6.1162    42.8525   -26.6089 C.ar    
 164 C164          -6.7919    43.7090   -25.7600 C.ar    
 165 C165          -8.0084    44.2431   -26.1419 C.ar    
 166 C166         -13.6648    46.9045   -28.6900 C.2     
 167 O167         -12.5625    46.9433   -29.1943 O.2     
 168 N168         -12.6587    45.3878   -27.0849 N.am    
 169 C169         -13.9041    46.0585   -27.4660 C.3     
 170 C170         -14.3768    46.9489   -26.3151 C.3     
 171 C171         -14.7719    46.0876   -25.1433 C.2     
 172 O172         -14.6116    44.8864   -25.1922 O.2     
 173 N173         -15.3035    46.6521   -24.0409 N.am    
 174 C174         -13.9316    49.7256   -30.1691 C.2     
 175 O175         -13.7350    50.0575   -29.0193 O.2     
 176 N176         -14.6758    47.6179   -29.2242 N.am    
 177 C177         -14.4727    48.3528   -30.4752 C.3     
 178 C178         -15.8069    48.4832   -31.2125 C.3     
 179 C179         -16.2711    47.1198   -31.6561 C.2     
 180 O180         -15.5525    46.1549   -31.5024 O.2     
 181 N181         -17.4847    46.9727   -32.2235 N.am    
 182 C182         -13.4942    52.8604   -31.9981 C.2     
 183 O183         -14.1238    52.4562   -32.9526 O.2     
 184 N184         -13.6661    50.5846   -31.1732 N.am    
 185 C185         -13.1402    51.9192   -30.8757 C.3     
 186 C186         -11.6187    51.8471   -30.7312 C.3     
 187 C187         -11.0060    51.3369   -32.0370 C.3     
 188 C188          -9.4800    51.3828   -31.9364 C.3     
 189 C189         -11.2593    50.8916   -29.5916 C.3     
 190 C190         -12.4630    56.1999   -33.0691 C.2     
 191 O191         -11.5575    56.2397   -32.2632 O.2     
 192 N192         -13.1110    54.1513   -31.9412 N.am    
 193 C193         -13.4552    55.0662   -33.0324 C.3     
 194 C194         -14.8608    55.6259   -32.8045 C.3     
 195 C195         -15.8822    54.4901   -32.8913 C.3     
 196 C196         -17.2718    55.0260   -32.5409 C.3     
 197 C197         -15.8971    53.9252   -34.3131 C.3     
 198 C198         -12.2542    59.4761   -34.6773 C.2     
 199 O199         -13.4010    59.4195   -35.0679 O.2     
 200 N200         -12.5818    57.1696   -33.9976 N.am    
 201 C201         -11.6172    58.2717   -34.0333 C.3     
 202 C202         -10.3901    57.8493   -34.8436 C.3     
 203 C203          -9.6721    56.7062   -34.1234 C.3     
 204 C204          -8.5188    56.2005   -34.9924 C.3     
 205 C205          -9.1213    57.2108   -32.7881 C.3     
 206 C206         -11.0971    62.6663   -36.0362 C.2     
 207 O207          -9.9308    62.3464   -35.9437 O.2     
 208 N208         -11.5495    60.6161   -34.8191 N.am    
 209 C209         -12.1687    61.7870   -35.4451 C.3     
 210 C210         -12.9511    62.5743   -34.3921 C.3     
 211 C211         -14.1165    61.7245   -33.8816 C.3     
 212 C212         -14.8871    62.5001   -32.8444 C.2     
 213 O213         -14.5386    63.6220   -32.5432 O.2     
 214 N214         -15.9637    61.9469   -32.2515 N.am    
 215 C215          -9.8526    65.5817   -36.1769 C.2     
 216 O216         -10.2927    65.5280   -35.0529 O.2     
 217 N217         -11.4346    63.8081   -36.6677 N.am    
 218 C218         -10.3928    64.6629   -37.2423 C.3     
 219 C219         -10.9864    65.4953   -38.3806 C.3     
 220 C220         -11.4151    64.5821   -39.5000 C.ar    
 221 C221         -12.6980    64.0666   -39.5172 C.ar    
 222 C222         -13.0933    63.2288   -40.5421 C.ar    
 223 C223         -12.2020    62.9053   -41.5548 C.ar    
 224 O224         -12.5887    62.0817   -42.5644 O.3     
 225 C225         -10.9156    63.4242   -41.5355 C.ar    
 226 C226         -10.5268    64.2656   -40.5112 C.ar    
 227 O227          -8.8826    66.4597   -36.4766 O.3     
 228 H228          -1.9482    12.3916    -7.3603 H       
 229 H229          -1.7219    12.1230    -8.9859 H       
 230 H230           0.1488    11.3276    -6.8515 H       
 231 H231           0.3678    12.7416    -7.9102 H       
 232 H232           2.5117    10.2009   -10.8562 H       
 233 H233           4.5760     8.8563    -9.5604 H       
 234 H234           4.6610    10.5887   -10.0197 H       
 235 H235           3.8683     9.3706    -7.3141 H       
 236 H236           4.9785    10.7444    -7.6377 H       
 237 H237           3.1726    12.2113    -8.2581 H       
 238 H238           2.4199    11.2681    -6.9357 H       
 239 H239           3.3669     7.6753   -11.2011 H       
 240 H240           1.8742     5.8253    -9.5050 H       
 241 H241           0.5006     4.9358   -11.3258 H       
 242 H242           0.1816     6.6785   -11.1541 H       
 243 H243           0.5843     6.0672   -13.4278 H       
 244 H244           2.1290     3.4504   -10.7530 H       
 245 H245           4.6176     3.3495   -12.2777 H       
 246 H246           4.3655     2.1703    -9.4761 H       
 247 H247           5.6678     1.7650   -10.6197 H       
 248 H248           5.0202     4.5915    -9.6716 H       
 249 H249           7.2512     2.6806    -8.8419 H       
 250 H250           7.0904     4.3759    -8.3238 H       
 251 H251           5.8757     3.1740    -7.8256 H       
 252 H252           7.3338     3.3995   -11.2654 H       
 253 H253           6.0789     4.4973   -11.8886 H       
 254 H254           7.2539     5.0805   -10.6854 H       
 255 H255           6.1389     1.2329   -12.6812 H       
 256 H256           6.2255     0.3382   -15.3155 H       
 257 H257           6.3976    -0.7477   -13.8976 H       
 258 H258           3.8686    -0.1230   -15.5242 H       
 259 H259           4.4741    -1.7205   -14.9713 H       
 260 H260           3.9117    -1.2706   -12.6737 H       
 261 H261           2.5522    -0.4799   -13.5289 H       
 262 H262           7.2270     2.3956   -14.8626 H       
 263 H263           5.6734     4.8150   -15.2518 H       
 264 H264           8.3070     3.8502   -16.4521 H       
 265 H265           7.6054     5.4628   -16.7267 H       
 266 H266           7.7403     7.1964   -14.7281 H       
 267 H267           8.9746     7.2183   -12.5002 H       
 268 H268          10.3828     5.3499   -10.8315 H       
 269 H269          11.0276     2.9829   -10.7618 H       
 270 H270          10.4002     1.4625   -12.5886 H       
 271 H271           9.1248     2.2868   -14.5038 H       
 272 H272           5.6971     5.5741   -17.8375 H       
 273 H273           5.0980     3.3097   -19.5815 H       
 274 H274           2.9712     5.3172   -18.7158 H       
 275 H275           2.7979     4.2090   -20.0979 H       
 276 H276           2.9969     4.4728   -16.4417 H       
 277 H277           2.2858     2.6813   -14.9108 H       
 278 H278           0.6834     0.2123   -15.4824 H       
 279 H279           1.8690     0.0209   -18.2295 H       
 280 H280           2.5717     1.8205   -19.7548 H       
 281 H281           6.5128     6.2262   -22.6906 H       
 282 H282           4.8914     5.5564   -24.8517 H       
 283 H283           6.3491     4.6210   -24.3834 H       
 284 H284           3.4184     4.0819   -23.6404 H       
 285 H285           4.6559     2.9166   -24.2193 H       
 286 H286           5.8649     2.9853   -22.1382 H       
 287 H287           4.1728     3.0998   -21.5648 H       
 288 H288           5.2710     7.8448   -24.4420 H       
 289 H289           3.6789     9.5634   -22.8646 H       
 290 H290           2.6022     8.5893   -23.8943 H       
 291 H291           2.3960    11.1835   -24.5943 H       
 292 H292           4.5075    11.9143   -26.4745 H       
 293 H293           1.6926    11.1776   -27.3924 H       
 294 H294           2.8990    12.0102   -28.4022 H       
 295 H295           4.4514    10.0965   -28.1252 H       
 296 H296           3.2450     9.2640   -27.1155 H       
 297 H297           2.6621     7.9292   -30.4813 H       
 298 H298           3.5036    14.0466   -27.7816 H       
 299 H299           1.6113    15.4934   -26.0923 H       
 300 H300           4.5219    16.3591   -26.3891 H       
 301 H301           3.2258    17.3832   -25.7260 H       
 302 H302           2.8026    15.7005   -23.9545 H       
 303 H303           4.0987    14.6764   -24.6176 H       
 304 H304           5.7398    16.4904   -24.2115 H       
 305 H305           4.4437    17.5145   -23.5484 H       
 306 H306           4.4552    15.0682   -22.1370 H       
 307 H307           6.6310    16.2157   -19.6564 H       
 308 H308           6.4548    17.9360   -22.6574 H       
 309 H309           7.1960    17.8981   -21.1501 H       
 310 H310           1.6087    17.9888   -27.1101 H       
 311 H311           2.2637    17.9417   -29.9555 H       
 312 H312          -0.0379    18.3049   -30.7053 H       
 313 H313           0.0430    16.7766   -29.7966 H       
 314 H314          -0.6280    18.2348   -29.0275 H       
 315 H315           2.9268    22.2168   -29.2732 H       
 316 H316           1.8863    23.4674   -31.5318 H       
 317 H317           3.4562    22.5988   -31.5189 H       
 318 H318           0.7036    21.5481   -32.3854 H       
 319 H319           2.2817    21.3681   -33.2231 H       
 320 H320           3.1041    19.8020   -31.5895 H       
 321 H321           1.3784    19.3354   -31.6851 H       
 322 H322           1.5683    24.5301   -29.4538 H       
 323 H323          -1.2955    24.0919   -29.0872 H       
 324 H324          -1.2734    25.1192   -26.8002 H       
 325 H325           0.4089    22.5895   -27.0957 H       
 326 H326          -0.4618    23.0947   -25.6277 H       
 327 H327          -1.3699    22.6556   -27.0943 H       
 328 H328           0.9118    26.2737   -27.0017 H       
 329 H329           0.8824    25.2056   -25.5781 H       
 330 H330           1.7392    24.6986   -27.0536 H       
 331 H331          -2.4054    26.3478   -28.6846 H       
 332 H332          -0.6630    28.6426   -29.1593 H       
 333 H333          -2.8288    27.8051   -31.1384 H       
 334 H334          -2.0127    29.3870   -31.1433 H       
 335 H335           0.1752    28.2573   -31.4356 H       
 336 H336          -0.6409    26.6755   -31.4306 H       
 337 H337          -0.3535    27.5175   -34.9885 H       
 338 H338          -2.3697    30.7133   -29.4082 H       
 339 H339          -4.8160    30.2202   -27.8916 H       
 340 H340          -2.5268    31.9075   -26.7864 H       
 341 H341          -4.1792    31.8893   -26.1250 H       
 342 H342          -3.9867    29.4520   -25.7111 H       
 343 H343          -2.3342    29.4703   -26.3725 H       
 344 H344          -1.8490    29.8286   -22.7551 H       
 345 H345          -5.7921    32.6863   -27.4138 H       
 346 H346          -4.9666    34.5449   -29.5094 H       
 347 H347          -7.6986    33.1867   -29.5207 H       
 348 H348          -7.2726    34.6075   -30.5046 H       
 349 H349          -5.7975    31.9381   -30.5877 H       
 350 H350          -7.8195    33.1559   -32.5229 H       
 351 H351          -6.9108    31.6478   -32.7842 H       
 352 H352          -8.1071    31.7497   -31.4702 H       
 353 H353          -5.6716    34.4215   -32.3578 H       
 354 H354          -4.4290    33.9170   -31.1875 H       
 355 H355          -4.7629    32.9135   -32.6191 H       
 356 H356          -6.8316    36.4884   -29.4252 H       
 357 H357          -7.9523    36.7252   -26.7390 H       
 358 H358          -5.7241    38.5528   -27.7411 H       
 359 H359          -6.7268    38.8754   -26.3063 H       
 360 H360          -5.9656    36.7431   -25.2949 H       
 361 H361          -4.9629    36.4205   -26.7298 H       
 362 H362          -2.6554    38.0253   -24.3740 H       
 363 H363          -8.8811    39.2532   -26.6434 H       
 364 H364          -9.6244    40.1793   -29.3113 H       
 365 H365         -11.6757    39.0788   -27.3391 H       
 366 H366         -12.0779    40.0216   -28.7943 H       
 367 H367         -10.9562    38.3200   -30.2067 H       
 368 H368         -10.5540    37.3772   -28.7515 H       
 369 H369         -12.9683    37.1391   -28.2385 H       
 370 H370         -13.3705    38.0819   -29.6937 H       
 371 H371         -11.7273    35.9170   -30.4618 H       
 372 H372         -14.4117    33.7763   -31.1068 H       
 373 H373         -14.9393    36.5809   -29.1440 H       
 374 H374         -15.6775    35.2294   -29.8156 H       
 375 H375         -11.4197    42.1339   -28.8434 H       
 376 H376         -10.9244    43.3894   -26.2538 H       
 377 H377          -9.9116    44.5934   -28.8679 H       
 378 H378         -10.0111    45.4715   -27.3228 H       
 379 H379          -8.3012    42.8032   -29.1781 H       
 380 H380          -6.1308    41.8576   -28.5010 H       
 381 H381          -5.1645    42.4373   -26.3117 H       
 382 H382          -6.3682    43.9631   -24.7997 H       
 383 H383          -8.5347    44.9153   -25.4803 H       
 384 H384         -12.0638    45.8000   -26.4391 H       
 385 H385         -14.6671    45.3113   -27.6843 H       
 386 H386         -13.5692    47.6180   -26.0181 H       
 387 H387         -15.2352    47.5370   -26.6396 H       
 388 H388         -15.4318    47.6128   -24.0018 H       
 389 H389         -15.5579    46.0977   -23.2867 H       
 390 H390         -15.5379    47.6448   -28.7805 H       
 391 H391         -13.7623    47.8137   -31.1020 H       
 392 H392         -16.5496    48.9206   -30.5452 H       
 393 H393         -15.6791    49.1249   -32.0843 H       
 394 H394         -18.0594    47.7444   -32.3464 H       
 395 H395         -17.7834    46.0952   -32.5090 H       
 396 H396         -13.8234    50.3192   -32.0928 H       
 397 H397         -13.5767    52.2826   -29.9454 H       
 398 H398         -11.2274    52.8401   -30.5098 H       
 399 H399         -11.3278    50.3105   -32.2127 H       
 400 H400         -11.3347    51.9673   -32.8632 H       
 401 H401          -9.0434    51.0193   -32.8667 H       
 402 H402          -9.1581    52.4092   -31.7607 H       
 403 H403          -9.1512    50.7524   -31.1101 H       
 404 H404         -10.1754    50.8403   -29.4886 H       
 405 H405         -11.6958    51.2551   -28.6613 H       
 406 H406         -11.6506    49.8986   -29.8130 H       
 407 H407         -12.6074    54.4745   -31.1778 H       
 408 H408         -13.4275    54.5283   -33.9800 H       
 409 H409         -14.9128    56.0868   -31.8181 H       
 410 H410         -15.0824    56.3729   -33.5667 H       
 411 H411         -15.6094    53.7017   -32.1899 H       
 412 H412         -17.5447    55.8145   -33.2423 H       
 413 H413         -17.9995    54.2169   -32.6027 H       
 414 H414         -17.2612    55.4285   -31.5279 H       
 415 H415         -16.6248    53.1160   -34.3749 H       
 416 H416         -16.1700    54.7136   -35.0145 H       
 417 H417         -14.9072    53.5434   -34.5627 H       
 418 H418         -13.3060    57.1378   -34.6421 H       
 419 H419         -11.3131    58.5214   -33.0168 H       
 420 H420         -10.7049    57.5150   -35.8322 H       
 421 H421          -9.7125    58.6970   -34.9454 H       
 422 H422         -10.3746    55.8926   -33.9426 H       
 423 H423          -7.8163    57.0141   -35.1732 H       
 424 H424          -8.0073    55.3861   -34.4793 H       
 425 H425          -8.9111    55.8410   -35.9436 H       
 426 H426          -8.4189    58.0244   -32.9690 H       
 427 H427          -9.9430    57.5711   -32.1691 H       
 428 H428          -8.6098    56.3964   -32.2750 H       
 429 H429         -10.6323    60.6614   -34.5067 H       
 430 H430         -12.8472    61.4612   -36.2336 H       
 431 H431         -12.2918    62.8238   -33.5608 H       
 432 H432         -13.3377    63.4913   -34.8370 H       
 433 H433         -14.7759    61.4751   -34.7129 H       
 434 H434         -13.7300    60.8076   -33.4367 H       
 435 H435         -16.2424    61.0495   -32.4924 H       
 436 H436         -16.4597    62.4460   -31.5839 H       
 437 H437         -12.3673    64.0639   -36.7417 H       
 438 H438          -9.5854    64.0413   -37.6295 H       
 439 H439         -11.8498    66.0498   -38.0131 H       
 440 H440         -10.2357    66.1943   -38.7492 H       
 441 H441         -13.3914    64.3187   -38.7286 H       
 442 H442         -14.0952    62.8258   -40.5547 H       
 443 H443         -12.9752    62.5424   -43.3216 H       
 444 H444         -10.2198    63.1735   -42.3226 H       
 445 H445          -9.5268    64.6734   -40.4980 H       
 446 H446          -8.5682    67.0280   -35.7601 H       
@<TRIPOS>BOND
   1    1    2 2
   2    1    4 1
   3    1    7 am
   4    3    4 1
   5    3  228 1
   6    3  229 1
   7    4  230 1
   8    4  231 1
   9    5    6 2
  10    5   14 am
  11    5    8 1
  12    7    8 1
  13    7   11 1
  14    8    9 1
  15    8  232 1
  16    9   10 1
  17    9  233 1
  18    9  234 1
  19   10   11 1
  20   10  235 1
  21   10  236 1
  22   11  237 1
  23   11  238 1
  24   12   13 2
  25   12   15 1
  26   12   20 am
  27   14   15 1
  28   14  239 1
  29   15   16 1
  30   15  240 1
  31   16   17 1
  32   16  241 1
  33   16  242 1
  34   17  243 1
  35   18   19 2
  36   18   21 1
  37   18   28 am
  38   20   21 1
  39   20  244 1
  40   21   22 1
  41   21  245 1
  42   22   23 1
  43   22  246 1
  44   22  247 1
  45   23   24 1
  46   23   25 1
  47   23  248 1
  48   24  249 1
  49   24  250 1
  50   24  251 1
  51   25  252 1
  52   25  253 1
  53   25  254 1
  54   26   27 2
  55   26   35 am
  56   26   29 1
  57   28   29 1
  58   28   32 1
  59   29   30 1
  60   29  255 1
  61   30   31 1
  62   30  256 1
  63   30  257 1
  64   31   32 1
  65   31  258 1
  66   31  259 1
  67   32  260 1
  68   32  261 1
  69   33   34 2
  70   33   36 1
  71   33   49 am
  72   35   36 1
  73   35  262 1
  74   36   37 1
  75   36  263 1
  76   37   38 1
  77   37  264 1
  78   37  265 1
  79   38   39 2
  80   38   46 1
  81   39   40 1
  82   39  266 1
  83   40   41 1
  84   40  267 1
  85   41   42 ar
  86   41   46 ar
  87   42   43 ar
  88   42  268 1
  89   43   44 ar
  90   43  269 1
  91   44   45 ar
  92   44  270 1
  93   45   46 ar
  94   45  271 1
  95   47   48 2
  96   47   50 1
  97   47   61 am
  98   49   50 1
  99   49  272 1
 100   50   51 1
 101   50  273 1
 102   51   52 1
 103   51  274 1
 104   51  275 1
 105   52   53 ar
 106   52   58 ar
 107   53   54 ar
 108   53  276 1
 109   54   55 ar
 110   54  277 1
 111   55   56 1
 112   55   57 ar
 113   56  278 1
 114   57   58 ar
 115   57  279 1
 116   58  280 1
 117   59   60 2
 118   59   68 am
 119   59   62 1
 120   61   62 1
 121   61   65 1
 122   62   63 1
 123   62  281 1
 124   63   64 1
 125   63  282 1
 126   63  283 1
 127   64   65 1
 128   64  284 1
 129   64  285 1
 130   65  286 1
 131   65  287 1
 132   66   67 2
 133   66   69 1
 134   66   72 am
 135   68   69 1
 136   68  288 1
 137   69  289 1
 138   69  290 1
 139   70   71 2
 140   70   73 1
 141   70   81 am
 142   72   73 1
 143   72  291 1
 144   73   74 1
 145   73  292 1
 146   74   75 1
 147   74  293 1
 148   74  294 1
 149   75   76 1
 150   75  295 1
 151   75  296 1
 152   76   77 2
 153   76   78 1
 154   78  297 1
 155   79   80 2
 156   79   82 1
 157   79   92 am
 158   81   82 1
 159   81  298 1
 160   82   83 1
 161   82  299 1
 162   83   84 1
 163   83  300 1
 164   83  301 1
 165   84   85 1
 166   84  302 1
 167   84  303 1
 168   85   86 1
 169   85  304 1
 170   85  305 1
 171   86   87 1
 172   86  306 1
 173   87   88 2
 174   87   89 1
 175   88  307 1
 176   89  308 1
 177   89  309 1
 178   90   91 2
 179   90   93 1
 180   90   97 am
 181   92   93 1
 182   92  310 1
 183   93   94 1
 184   93  311 1
 185   94  312 1
 186   94  313 1
 187   94  314 1
 188   95   96 2
 189   95  104 am
 190   95   98 1
 191   97   98 1
 192   97  101 1
 193   98   99 1
 194   98  315 1
 195   99  100 1
 196   99  316 1
 197   99  317 1
 198  100  101 1
 199  100  318 1
 200  100  319 1
 201  101  320 1
 202  101  321 1
 203  102  103 2
 204  102  105 1
 205  102  111 am
 206  104  105 1
 207  104  322 1
 208  105  106 1
 209  105  323 1
 210  106  107 1
 211  106  108 1
 212  106  324 1
 213  107  325 1
 214  107  326 1
 215  107  327 1
 216  108  328 1
 217  108  329 1
 218  108  330 1
 219  109  110 2
 220  109  112 1
 221  109  120 am
 222  111  112 1
 223  111  331 1
 224  112  113 1
 225  112  332 1
 226  113  114 1
 227  113  333 1
 228  113  334 1
 229  114  115 1
 230  114  335 1
 231  114  336 1
 232  115  116 2
 233  115  117 1
 234  117  337 1
 235  118  119 2
 236  118  121 1
 237  118  129 am
 238  120  121 1
 239  120  338 1
 240  121  122 1
 241  121  339 1
 242  122  123 1
 243  122  340 1
 244  122  341 1
 245  123  124 1
 246  123  342 1
 247  123  343 1
 248  124  125 2
 249  124  126 1
 250  126  344 1
 251  127  128 2
 252  127  130 1
 253  127  137 am
 254  129  130 1
 255  129  345 1
 256  130  131 1
 257  130  346 1
 258  131  132 1
 259  131  347 1
 260  131  348 1
 261  132  133 1
 262  132  134 1
 263  132  349 1
 264  133  350 1
 265  133  351 1
 266  133  352 1
 267  134  353 1
 268  134  354 1
 269  134  355 1
 270  135  136 2
 271  135  138 1
 272  135  146 am
 273  137  138 1
 274  137  356 1
 275  138  139 1
 276  138  357 1
 277  139  140 1
 278  139  358 1
 279  139  359 1
 280  140  141 1
 281  140  360 1
 282  140  361 1
 283  141  142 2
 284  141  143 1
 285  143  362 1
 286  144  145 2
 287  144  147 1
 288  144  157 am
 289  146  147 1
 290  146  363 1
 291  147  148 1
 292  147  364 1
 293  148  149 1
 294  148  365 1
 295  148  366 1
 296  149  150 1
 297  149  367 1
 298  149  368 1
 299  150  151 1
 300  150  369 1
 301  150  370 1
 302  151  152 1
 303  151  371 1
 304  152  153 2
 305  152  154 1
 306  153  372 1
 307  154  373 1
 308  154  374 1
 309  155  156 2
 310  155  158 1
 311  155  168 am
 312  157  158 1
 313  157  375 1
 314  158  159 1
 315  158  376 1
 316  159  160 1
 317  159  377 1
 318  159  378 1
 319  160  161 ar
 320  160  165 ar
 321  161  162 ar
 322  161  379 1
 323  162  163 ar
 324  162  380 1
 325  163  164 ar
 326  163  381 1
 327  164  165 ar
 328  164  382 1
 329  165  383 1
 330  166  167 2
 331  166  169 1
 332  166  176 am
 333  168  169 1
 334  168  384 1
 335  169  170 1
 336  169  385 1
 337  170  171 1
 338  170  386 1
 339  170  387 1
 340  171  172 2
 341  171  173 am
 342  173  388 1
 343  173  389 1
 344  174  175 2
 345  174  177 1
 346  174  184 am
 347  176  177 1
 348  176  390 1
 349  177  178 1
 350  177  391 1
 351  178  179 1
 352  178  392 1
 353  178  393 1
 354  179  180 2
 355  179  181 am
 356  181  394 1
 357  181  395 1
 358  182  183 2
 359  182  185 1
 360  182  192 am
 361  184  185 1
 362  184  396 1
 363  185  186 1
 364  185  397 1
 365  186  187 1
 366  186  189 1
 367  186  398 1
 368  187  188 1
 369  187  399 1
 370  187  400 1
 371  188  401 1
 372  188  402 1
 373  188  403 1
 374  189  404 1
 375  189  405 1
 376  189  406 1
 377  190  191 2
 378  190  193 1
 379  190  200 am
 380  192  193 1
 381  192  407 1
 382  193  194 1
 383  193  408 1
 384  194  195 1
 385  194  409 1
 386  194  410 1
 387  195  196 1
 388  195  197 1
 389  195  411 1
 390  196  412 1
 391  196  413 1
 392  196  414 1
 393  197  415 1
 394  197  416 1
 395  197  417 1
 396  198  199 2
 397  198  201 1
 398  198  208 am
 399  200  201 1
 400  200  418 1
 401  201  202 1
 402  201  419 1
 403  202  203 1
 404  202  420 1
 405  202  421 1
 406  203  204 1
 407  203  205 1
 408  203  422 1
 409  204  423 1
 410  204  424 1
 411  204  425 1
 412  205  426 1
 413  205  427 1
 414  205  428 1
 415  206  207 2
 416  206  209 1
 417  206  217 am
 418  208  209 1
 419  208  429 1
 420  209  210 1
 421  209  430 1
 422  210  211 1
 423  210  431 1
 424  210  432 1
 425  211  212 1
 426  211  433 1
 427  211  434 1
 428  212  213 2
 429  212  214 am
 430  214  435 1
 431  214  436 1
 432  215  216 2
 433  215  218 1
 434  215  227 1
 435  217  218 1
 436  217  437 1
 437  218  219 1
 438  218  438 1
 439  219  220 1
 440  219  439 1
 441  219  440 1
 442  220  221 ar
 443  220  226 ar
 444  221  222 ar
 445  221  441 1
 446  222  223 ar
 447  222  442 1
 448  223  224 1
 449  223  225 ar
 450  224  443 1
 451  225  226 ar
 452  225  444 1
 453  226  445 1
 454  227  446 1

#	End of record

