#	Name: ASD01882768
#	Creating user name:	WinNT
#	Creation time:	15. 06. 2019 19:45

#	Modifying user name:	WinNT
#	Modification time:	15. 06. 2019 19:45

#	Program:	/corina/corina34_cracker 3.40 0067  02.08.2006

@<TRIPOS>MOLECULE
ASD01882768
  50   51    0    0    0
SMALL
NO_CHARGES


@<TRIPOS>ATOM
   1 N1            -0.0165     1.3692     0.0096 N.pl3   
   2 O2             1.1412    -0.7243    -0.0127 O.3     
   3 C3             0.0021    -0.0041     0.0020 C.2     
   4 N4            -1.0753    -0.7270     0.0089 N.2     
   5 C5            -0.6823    -2.1496     0.0076 C.3     
   6 C6             0.8153    -2.0697     0.3922 C.3     
   7 C7             1.6390    -3.0940    -0.3909 C.3     
   8 O8             3.0178    -2.9666    -0.0377 O.3     
   9 C9             3.8916    -3.8096    -0.6484 C.ar    
  10 C10            5.2454    -3.7409    -0.3525 C.ar    
  11 C11            6.1314    -4.5988    -0.9746 C.ar    
  12 C12            5.6702    -5.5252    -1.8919 C.ar    
  13 C13            4.3218    -5.5953    -2.1887 C.ar    
  14 C14            3.4307    -4.7439    -1.5642 C.ar    
  15 C15            6.6392    -6.4596    -2.5694 C.3     
  16 C16            7.3531    -7.3068    -1.5143 C.3     
  17 C17            5.8776    -7.3758    -3.5293 C.3     
  18 C18            7.6705    -5.6447    -3.3525 C.3     
  19 C19            5.7489    -2.7310     0.6462 C.3     
  20 C20            7.2664    -2.8655     0.7869 C.3     
  21 C21            5.4045    -1.3207     0.1632 C.3     
  22 C22            5.0868    -2.9813     2.0026 C.3     
  23 H23            0.8168     1.8655     0.0043 H       
  24 H24           -0.8631     1.8427     0.0162 H       
  25 H25           -1.2463    -2.7101     0.7532 H       
  26 H26           -0.8071    -2.5872    -0.9829 H       
  27 H27            0.9511    -2.1991     1.4659 H       
  28 H28            1.2935    -4.0992    -0.1495 H       
  29 H29            1.5198    -2.9156    -1.4596 H       
  30 H30            7.1853    -4.5457    -0.7446 H       
  31 H31            3.9641    -6.3194    -2.9057 H       
  32 H32            2.3768    -4.8022    -1.7929 H       
  33 H33            6.6184    -7.8873    -0.9564 H       
  34 H34            8.0540    -7.9827    -2.0044 H       
  35 H35            7.8957    -6.6541    -0.8304 H       
  36 H36            5.3689    -6.7722    -4.2810 H       
  37 H37            6.5784    -8.0516    -4.0194 H       
  38 H38            5.1428    -7.9563    -2.9714 H       
  39 H39            8.2131    -4.9920    -2.6686 H       
  40 H40            8.3714    -6.3206    -3.8426 H       
  41 H41            7.1619    -5.0411    -4.1042 H       
  42 H42            7.7381    -2.6872    -0.1794 H       
  43 H43            7.6306    -2.1350     1.5093 H       
  44 H44            7.5118    -3.8703     1.1310 H       
  45 H45            4.3234    -1.2248     0.0630 H       
  46 H46            5.7686    -0.5901     0.8856 H       
  47 H47            5.8762    -1.1423    -0.8031 H       
  48 H48            5.3321    -3.9861     2.3468 H       
  49 H49            5.4509    -2.2508     2.7251 H       
  50 H50            4.0056    -2.8855     1.9024 H       
@<TRIPOS>BOND
   1    1    3 1
   2    1   23 1
   3    1   24 1
   4    2    3 1
   5    2    6 1
   6    3    4 2
   7    4    5 1
   8    5    6 1
   9    5   25 1
  10    5   26 1
  11    6    7 1
  12    6   27 1
  13    7    8 1
  14    7   28 1
  15    7   29 1
  16    8    9 1
  17    9   10 ar
  18    9   14 ar
  19   10   11 ar
  20   10   19 1
  21   11   12 ar
  22   11   30 1
  23   12   13 ar
  24   12   15 1
  25   13   14 ar
  26   13   31 1
  27   14   32 1
  28   15   16 1
  29   15   18 1
  30   15   17 1
  31   16   33 1
  32   16   34 1
  33   16   35 1
  34   17   36 1
  35   17   37 1
  36   17   38 1
  37   18   39 1
  38   18   40 1
  39   18   41 1
  40   19   20 1
  41   19   22 1
  42   19   21 1
  43   20   42 1
  44   20   43 1
  45   20   44 1
  46   21   45 1
  47   21   46 1
  48   21   47 1
  49   22   48 1
  50   22   49 1
  51   22   50 1

#	End of record

