#	Name: ASD01816895
#	Creating user name:	WinNT
#	Creation time:	15. 06. 2019 19:36

#	Modifying user name:	WinNT
#	Modification time:	15. 06. 2019 19:36

#	Program:	/corina/corina34_cracker 3.40 0067  02.08.2006

@<TRIPOS>MOLECULE
ASD01816895
  63   67    0    0    0
SMALL
NO_CHARGES


@<TRIPOS>ATOM
   1 C1            -0.0168     1.3897     0.0097 C.ar    
   2 C2             0.0021    -0.0041     0.0020 C.ar    
   3 C3             1.1796    -0.6877    -0.0129 C.ar    
   4 C4             2.3927     0.0187    -0.0207 C.ar    
   5 C5             2.3768     1.4381    -0.0130 C.ar    
   6 C6             1.1385     2.1078     0.0025 C.ar    
   7 C7             3.6297    -0.6529    -0.0357 C.ar    
   8 C8             4.7711     0.0956    -0.0422 C.ar    
   9 C9             4.6871     1.4959    -0.0340 C.ar    
  10 N10            3.5238     2.1168    -0.0199 N.ar    
  11 C11            5.9353     2.2963    -0.0412 C.2     
  12 N12            5.8725     3.6426    -0.0335 N.am    
  13 O13            7.0146     1.7386    -0.0541 O.2     
  14 C14            7.1057     4.4335    -0.0406 C.3     
  15 C15            6.8349     5.8060     0.5789 C.3     
  16 C16            3.6922    -2.1586    -0.0438 C.3     
  17 C17            3.5760    -2.6586    -1.4607 C.ar    
  18 C18            4.7088    -2.8402    -2.2315 C.ar    
  19 C19            2.3309    -2.9465    -2.0021 C.ar    
  20 C20            2.2673    -3.4038    -3.3066 C.ar    
  21 C21            3.4493    -3.5587    -4.0280 C.ar    
  22 N22            4.6205    -3.2768    -3.4718 N.ar    
  23 C23            8.1228     6.6319     0.5714 C.3     
  24 C24            8.6067     6.8091    -0.8692 C.3     
  25 C25            8.8775     5.4366    -1.4887 C.3     
  26 C26            7.5896     4.6106    -1.4812 C.3     
  27 C27            6.3510     5.6289     2.0195 C.3     
  28 C28            3.3982    -4.0484    -5.4272 C.2     
  29 C29            4.4678    -4.2482    -6.2519 C.2     
  30 C30            2.2375    -4.3980    -6.1457 C.2     
  31 N31            2.6005    -4.7810    -7.3407 N.2     
  32 N32            3.9950    -4.6956    -7.4313 N.pl3   
  33 C33            4.8013    -5.0346    -8.6066 C.3     
  34 O34            5.9874     6.9009     2.5597 O.3     
  35 H35           -0.9643     1.9080     0.0170 H       
  36 H36           -0.9302    -0.5493     0.0084 H       
  37 H37            1.1803    -1.7677    -0.0184 H       
  38 H38            1.1059     3.1873     0.0090 H       
  39 H39            5.7363    -0.3889    -0.0533 H       
  40 H40            5.0108     4.0879    -0.0231 H       
  41 H41            7.8713     3.9179     0.5391 H       
  42 H42            6.0692     6.3216    -0.0008 H       
  43 H43            4.6418    -2.4851     0.3800 H       
  44 H44            2.8717    -2.5595     0.5513 H       
  45 H45            5.6795    -2.6209    -1.8118 H       
  46 H46            1.4317    -2.8169    -1.4181 H       
  47 H47            1.3150    -3.6378    -3.7591 H       
  48 H48            7.9299     7.6098     1.0127 H       
  49 H49            8.8884     6.1164     1.1511 H       
  50 H50            7.8410     7.3247    -1.4489 H       
  51 H51            9.5242     7.3975    -0.8745 H       
  52 H52            9.2222     5.5628    -2.5150 H       
  53 H53            9.6431     4.9210    -0.9090 H       
  54 H54            7.7825     3.6328    -1.9225 H       
  55 H55            6.8239     5.1262    -2.0609 H       
  56 H56            5.4848     4.9674     2.0330 H       
  57 H57            7.1498     5.1939     2.6202 H       
  58 H58            5.5050    -4.0780    -6.0038 H       
  59 H59            1.2246    -4.3568    -5.7732 H       
  60 H60            4.9199    -4.1505    -9.2331 H       
  61 H61            5.7817    -5.3864    -8.2854 H       
  62 H62            4.3023    -5.8189    -9.1757 H       
  63 H63            5.6705     6.8645     3.4725 H       
@<TRIPOS>BOND
   1    1    2 ar
   2    1    6 ar
   3    1   35 1
   4    2    3 ar
   5    2   36 1
   6    3    4 ar
   7    3   37 1
   8    4    5 ar
   9    4    7 ar
  10    5    6 ar
  11    5   10 ar
  12    6   38 1
  13    7    8 ar
  14    7   16 1
  15    8    9 ar
  16    8   39 1
  17    9   10 ar
  18    9   11 1
  19   11   12 am
  20   11   13 2
  21   12   14 1
  22   12   40 1
  23   14   15 1
  24   14   26 1
  25   14   41 1
  26   15   23 1
  27   15   27 1
  28   15   42 1
  29   16   17 1
  30   16   43 1
  31   16   44 1
  32   17   18 ar
  33   17   19 ar
  34   18   22 ar
  35   18   45 1
  36   19   20 ar
  37   19   46 1
  38   20   21 ar
  39   20   47 1
  40   21   22 ar
  41   21   28 1
  42   23   24 1
  43   23   48 1
  44   23   49 1
  45   24   25 1
  46   24   50 1
  47   24   51 1
  48   25   26 1
  49   25   52 1
  50   25   53 1
  51   26   54 1
  52   26   55 1
  53   27   34 1
  54   27   56 1
  55   27   57 1
  56   28   29 2
  57   28   30 1
  58   29   32 1
  59   29   58 1
  60   30   31 2
  61   30   59 1
  62   31   32 1
  63   32   33 1
  64   33   60 1
  65   33   61 1
  66   33   62 1
  67   34   63 1

#	End of record

