#	Name: ASD02562079
#	Creating user name:	WinNT
#	Creation time:	15. 06. 2019 20:25

#	Modifying user name:	WinNT
#	Modification time:	15. 06. 2019 20:25

#	Program:	/corina/corina34_cracker 3.40 0067  02.08.2006

@<TRIPOS>MOLECULE
ASD02562079
  51   54    0    0    0
SMALL
NO_CHARGES


@<TRIPOS>ATOM
   1 C1             0.0981     1.0510     1.1045 C.2     
   2 C2             0.2506    -0.4044     1.1306 C.2     
   3 C3             1.4575    -0.9574     0.8123 C.2     
   4 N4             2.5160    -0.1628     0.4723 N.pl3   
   5 C5             2.3940     1.2066     0.4417 C.2     
   6 C6             1.1622     1.8195     0.7637 C.2     
   7 C7             3.8042    -0.4653     0.1188 C.2     
   8 C8             4.4433     0.7325    -0.1210 C.2     
   9 N9             3.5587     1.7250     0.0842 N.2     
  10 N10            4.3622    -1.7398     0.0205 N.3     
  11 C11            5.8569     0.8977    -0.5327 C.ar    
  12 C12            3.3325    -2.7777     0.1641 C.3     
  13 C13            3.8068    -4.0640    -0.5151 C.3     
  14 C14            2.7345    -5.1450    -0.3655 C.3     
  15 C15            2.4856    -5.4145     1.1199 C.3     
  16 C16            2.0114    -4.1282     1.7991 C.3     
  17 C17            3.0837    -3.0472     1.6495 C.3     
  18 C18            6.8656     0.2019     0.1323 C.ar    
  19 C19            8.1807     0.3594    -0.2560 C.ar    
  20 C20            8.4995     1.2056    -1.3028 C.ar    
  21 C21            7.5038     1.8996    -1.9670 C.ar    
  22 C22            6.1839     1.7461    -1.5919 C.ar    
  23 Cl23           4.9353     2.6170    -2.4264 Cl      
  24 C24           -0.8872    -1.2644     1.4973 C.2     
  25 C25           -2.0745    -0.7126     1.8106 C.2     
  26 C26           -3.2069    -1.5685     2.1756 C.2     
  27 C27           -4.3820    -1.0223     2.4856 C.2     
  28 H28           -0.8501     1.5065     1.3490 H       
  29 H29            1.5767    -2.0306     0.8296 H       
  30 H30            1.0686     2.8952     0.7386 H       
  31 H31            4.8661    -1.8480    -0.8469 H       
  32 H32            2.4079    -2.4395    -0.3037 H       
  33 H33            3.9841    -3.8721    -1.5733 H       
  34 H34            4.7314    -4.4023    -0.0473 H       
  35 H35            1.8099    -4.8068    -0.8333 H       
  36 H36            3.0724    -6.0614    -0.8494 H       
  37 H37            1.7217    -6.1846     1.2264 H       
  38 H38            3.4102    -5.7527     1.5876 H       
  39 H39            1.0868    -3.7899     1.3313 H       
  40 H40            1.8341    -4.3201     2.8573 H       
  41 H41            4.0083    -3.3854     2.1173 H       
  42 H42            2.7458    -2.1308     2.1334 H       
  43 H43            6.6185    -0.4589     0.9501 H       
  44 H44            8.9626    -0.1789     0.2589 H       
  45 H45            9.5301     1.3253    -1.6026 H       
  46 H46            7.7590     2.5593    -2.7831 H       
  47 H47           -0.7692    -2.3378     1.5150 H       
  48 H48           -2.1925     0.3608     1.7929 H       
  49 H49           -3.0889    -2.6419     2.1932 H       
  50 H50           -4.5000     0.0511     2.4679 H       
  51 H51           -5.2164    -1.6530     2.7545 H       
@<TRIPOS>BOND
   1    1    2 1
   2    1    6 2
   3    1   28 1
   4    2    3 2
   5    2   24 1
   6    3    4 1
   7    3   29 1
   8    4    5 1
   9    4    7 1
  10    5    6 1
  11    5    9 2
  12    6   30 1
  13    7    8 2
  14    7   10 1
  15    8    9 1
  16    8   11 1
  17   10   12 1
  18   10   31 1
  19   11   18 ar
  20   11   22 ar
  21   12   13 1
  22   12   17 1
  23   12   32 1
  24   13   14 1
  25   13   33 1
  26   13   34 1
  27   14   15 1
  28   14   35 1
  29   14   36 1
  30   15   16 1
  31   15   37 1
  32   15   38 1
  33   16   17 1
  34   16   39 1
  35   16   40 1
  36   17   41 1
  37   17   42 1
  38   18   19 ar
  39   18   43 1
  40   19   20 ar
  41   19   44 1
  42   20   21 ar
  43   20   45 1
  44   21   22 ar
  45   21   46 1
  46   22   23 1
  47   24   25 2
  48   24   47 1
  49   25   26 1
  50   25   48 1
  51   26   27 2
  52   26   49 1
  53   27   50 1
  54   27   51 1

#	End of record

