#	Name: ASD01900717
#	Creating user name:	WinNT
#	Creation time:	15. 06. 2019 19:52

#	Modifying user name:	WinNT
#	Modification time:	15. 06. 2019 19:52

#	Program:	/corina/corina34_cracker 3.40 0067  02.08.2006

@<TRIPOS>MOLECULE
ASD01900717
  52   56    0    0    0
SMALL
NO_CHARGES


@<TRIPOS>ATOM
   1 C1            -0.4580     2.2092    -0.6417 C.ar    
   2 C2            -0.5434     0.8231    -0.5984 C.ar    
   3 C3            -1.7640     0.1899    -0.7158 C.ar    
   4 C4            -2.9228     0.9372    -0.8788 C.ar    
   5 C5            -2.8340     2.3349    -0.9261 C.ar    
   6 O6            -4.1236     0.3269    -0.9832 O.3     
   7 C7            -5.2110     0.9779    -1.4320 C.2     
   8 C8            -5.2729     2.3311    -1.5175 C.2     
   9 C9            -4.0878     3.1085    -1.1148 C.2     
  10 C10           -6.3831     0.1903    -1.8484 C.2     
  11 N11           -7.4946     0.8175    -2.3055 N.2     
  12 C12           -8.5495     0.1606    -2.6826 C.2     
  13 N13           -8.5944    -1.2058    -2.6381 N.pl3   
  14 C14           -7.4927    -1.9076    -2.1814 C.2     
  15 C15           -6.3494    -1.1924    -1.7791 C.2     
  16 C16           -1.6054     2.9694    -0.8000 C.ar    
  17 C17           -9.5622    -2.1044    -2.9706 C.2     
  18 C18           -9.1013    -3.3573    -2.7362 C.2     
  19 C19           -7.7989    -3.2544    -2.2386 C.2     
  20 O20            0.7511     2.8198    -0.5232 O.3     
  21 C21            1.8912     1.9745    -0.3568 C.3     
  22 C22            3.1513     2.8347    -0.2419 C.3     
  23 N23            3.0724     3.6593     0.9712 N.3     
  24 C24            4.3206     4.4267     1.1726 C.3     
  25 C25            4.5487     4.5274     2.6922 C.3     
  26 C26            3.3761     3.7469     3.3292 C.3     
  27 C27            2.9181     2.8122     2.1815 C.3     
  28 O28            3.8258     2.9861     4.4521 O.3     
  29 N29           -4.1373     4.4068    -0.9331 N.2     
  30 O30           -3.0154     5.0912    -0.4060 O.3     
  31 H31            0.3540     0.2357    -0.4721 H       
  32 H32           -1.8178    -0.8882    -0.6812 H       
  33 H33           -6.1660     2.8245    -1.8715 H       
  34 H34           -9.4111     0.7056    -3.0391 H       
  35 H35           -5.4718    -1.7079    -1.4179 H       
  36 H36           -1.5437     4.0471    -0.8339 H       
  37 H37          -10.5397    -1.8583    -3.3584 H       
  38 H38           -9.6453    -4.2750    -2.9044 H       
  39 H39           -7.1542    -4.0723    -1.9526 H       
  40 H40            1.7735     1.3798     0.5490 H       
  41 H41            1.9809     1.3118    -1.2175 H       
  42 H42            4.0279     2.1893    -0.1861 H       
  43 H43            3.2310     3.4810    -1.1160 H       
  44 H44            5.1563     3.9057     0.7054 H       
  45 H45            4.2161     5.4242     0.7459 H       
  46 H46            5.4998     4.0690     2.9632 H       
  47 H47            4.5262     5.5699     3.0099 H       
  48 H48            2.5731     4.4251     3.6181 H       
  49 H49            1.8768     2.5196     2.3161 H       
  50 H50            3.5608     1.9340     2.1209 H       
  51 H51            4.1950     3.5216     5.1676 H       
  52 H52           -3.1464     6.0443    -0.3082 H       
@<TRIPOS>BOND
   1    1    2 ar
   2    1   20 1
   3    1   16 ar
   4    2    3 ar
   5    2   31 1
   6    3    4 ar
   7    3   32 1
   8    4    5 ar
   9    4    6 1
  10    5   16 ar
  11    5    9 1
  12    6    7 1
  13    7    8 2
  14    7   10 1
  15    8    9 1
  16    8   33 1
  17    9   29 2
  18   10   11 1
  19   10   15 2
  20   11   12 2
  21   12   13 1
  22   12   34 1
  23   13   14 1
  24   13   17 1
  25   14   15 1
  26   14   19 2
  27   15   35 1
  28   16   36 1
  29   17   18 2
  30   17   37 1
  31   18   19 1
  32   18   38 1
  33   19   39 1
  34   20   21 1
  35   21   22 1
  36   21   40 1
  37   21   41 1
  38   22   23 1
  39   22   42 1
  40   22   43 1
  41   23   24 1
  42   23   27 1
  43   24   25 1
  44   24   44 1
  45   24   45 1
  46   25   26 1
  47   25   46 1
  48   25   47 1
  49   26   27 1
  50   26   28 1
  51   26   48 1
  52   27   49 1
  53   27   50 1
  54   28   51 1
  55   29   30 1
  56   30   52 1

#	End of record

