#	Name: ASD01884692
#	Creating user name:	WinNT
#	Creation time:	15. 06. 2019 19:48

#	Modifying user name:	WinNT
#	Modification time:	15. 06. 2019 19:48

#	Program:	/corina/corina34_cracker 3.40 0067  02.08.2006

@<TRIPOS>MOLECULE
ASD01884692
  47   49    0    0    0
SMALL
NO_CHARGES


@<TRIPOS>ATOM
   1 C1            -0.0164     1.3598     0.0095 C.2     
   2 C2             0.0021    -0.0041     0.0020 C.2     
   3 C3             1.2342    -0.6727    -0.0133 C.2     
   4 C4             2.3874     0.0358    -0.0205 C.2     
   5 N5             2.3670     1.3933    -0.0126 N.am    
   6 C6             1.1996     2.0643     0.0017 C.2     
   7 O7             1.1975     3.2849     0.0083 O.2     
   8 C8             1.2747    -2.1791    -0.0213 C.3     
   9 C9             3.6294     2.1366    -0.0197 C.3     
  10 C10            4.0495     2.3996    -1.4429 C.ar    
  11 C11            3.4737     3.4386    -2.1538 C.ar    
  12 C12            3.8603     3.6796    -3.4614 C.ar    
  13 C13            4.8211     2.8820    -4.0556 C.ar    
  14 C14            5.3956     1.8438    -3.3435 C.ar    
  15 C15            5.0138     1.6069    -2.0365 C.ar    
  16 C16            1.1767    -2.6995     1.4141 C.3     
  17 Cl17           5.3062     3.1828    -5.6951 Cl      
  18 F18            2.5349     4.2168    -1.5723 F       
  19 C19            1.2177    -4.2290     1.4060 C.3     
  20 C20            1.1197    -4.7494     2.8414 C.3     
  21 C21            1.1602    -6.2558     2.8335 C.ar    
  22 C22            2.3718    -6.9152     2.9227 C.ar    
  23 C23            2.4089    -8.2970     2.9153 C.ar    
  24 C24            1.2343    -9.0195     2.8192 C.ar    
  25 C25            0.0226    -8.3601     2.7309 C.ar    
  26 C26           -0.0148    -6.9783     2.7426 C.ar    
  27 H27           -0.9557     1.8927     0.0169 H       
  28 H28           -0.9222    -0.5627     0.0082 H       
  29 H29            3.3339    -0.4842    -0.0324 H       
  30 H30            0.4372    -2.5620    -0.6046 H       
  31 H31            2.2112    -2.5151    -0.4665 H       
  32 H32            3.4957     3.0849     0.5008 H       
  33 H33            4.3986     1.5511     0.4839 H       
  34 H34            3.4115     4.4897    -4.0170 H       
  35 H35            6.1460     1.2211    -3.8079 H       
  36 H36            5.4628     0.7964    -1.4816 H       
  37 H37            2.0141    -2.3167     1.9974 H       
  38 H38            0.2401    -2.3636     1.8593 H       
  39 H39            0.3803    -4.6118     0.8228 H       
  40 H40            2.1542    -4.5649     0.9609 H       
  41 H41            1.9572    -4.3665     3.4247 H       
  42 H42            0.1832    -4.4134     3.2866 H       
  43 H43            3.2895    -6.3508     2.9978 H       
  44 H44            3.3556    -8.8122     2.9843 H       
  45 H45            1.2634   -10.0991     2.8127 H       
  46 H46           -0.8951    -8.9246     2.6554 H       
  47 H47           -0.9616    -6.4632     2.6736 H       
@<TRIPOS>BOND
   1    1    2 2
   2    1    6 1
   3    1   27 1
   4    2    3 1
   5    2   28 1
   6    3    4 2
   7    3    8 1
   8    4    5 1
   9    4   29 1
  10    5    6 am
  11    5    9 1
  12    6    7 2
  13    8   16 1
  14    8   30 1
  15    8   31 1
  16    9   10 1
  17    9   32 1
  18    9   33 1
  19   10   11 ar
  20   10   15 ar
  21   11   12 ar
  22   11   18 1
  23   12   13 ar
  24   12   34 1
  25   13   14 ar
  26   13   17 1
  27   14   15 ar
  28   14   35 1
  29   15   36 1
  30   16   19 1
  31   16   37 1
  32   16   38 1
  33   19   20 1
  34   19   39 1
  35   19   40 1
  36   20   21 1
  37   20   41 1
  38   20   42 1
  39   21   22 ar
  40   21   26 ar
  41   22   23 ar
  42   22   43 1
  43   23   24 ar
  44   23   44 1
  45   24   25 ar
  46   24   45 1
  47   25   26 ar
  48   25   46 1
  49   26   47 1

#	End of record

