#	Name: ASD00431210
#	Creating user name:	WinNT
#	Creation time:	15. 06. 2019 18:35

#	Modifying user name:	WinNT
#	Modification time:	15. 06. 2019 18:35

#	Program:	/corina/corina34_cracker 3.40 0067  02.08.2006

@<TRIPOS>MOLECULE
ASD00431210
  48   51    0    0    0
SMALL
NO_CHARGES


@<TRIPOS>ATOM
   1 N1             0.1935     1.7331    -0.6652 N.am    
   2 C2            -0.0157     0.4018    -0.6480 C.2     
   3 O3             0.8951    -0.3532    -0.3675 O.2     
   4 N4            -1.2347    -0.0927    -0.9416 N.am    
   5 C5             1.5184     2.2705    -0.3461 C.3     
   6 C6             2.3877     2.2655    -1.6052 C.3     
   7 O7             0.5452     4.6225    -0.3065 O.3     
   8 N8             0.6537     5.6637     0.2985 N.2     
   9 C9             1.5599     5.5746     1.2444 C.2     
  10 C10            2.0694     4.2452     1.1780 C.2     
  11 C11            1.3787     3.6823     0.1623 C.2     
  12 S12            3.1903     6.4902     3.4470 S.3     
  13 C13            2.9201     8.1128     3.9124 C.2     
  14 N14            2.0039     8.6487     3.1662 N.2     
  15 C15            1.4721     7.8906     2.2327 C.2     
  16 C16            1.9685     6.6366     2.1860 C.2     
  17 O17            3.5698     8.7481     4.9167 O.3     
  18 C18            3.1710    10.0066     5.2388 C.ar    
  19 C19            2.0071    10.2007     5.9676 C.ar    
  20 C20            1.6034    11.4856     6.2949 C.ar    
  21 C21            2.3642    12.5746     5.8929 C.ar    
  22 C22            3.5231    12.3787     5.1665 C.ar    
  23 C23            3.9309    11.0985     4.8437 C.ar    
  24 O24            0.4631    11.6790     7.0086 O.3     
  25 C25            0.1078    13.0299     7.3102 C.3     
  26 C26           -1.1946    13.0476     8.1129 C.3     
  27 C27           -1.6837    14.3997     8.6360 C.3     
  28 C28           -2.4099    13.7213     7.4726 C.3     
  29 H29           -0.5322     2.3351    -0.8929 H       
  30 H30           -1.9614     0.5096    -1.1653 H       
  31 H31           -1.3852    -1.0509    -0.9292 H       
  32 H32            1.9860     1.6529     0.4207 H       
  33 H33            3.3735     2.6654    -1.3677 H       
  34 H34            2.4887     1.2444    -1.9729 H       
  35 H35            1.9201     2.8832    -2.3719 H       
  36 H36            2.8307     3.7927     1.7961 H       
  37 H37            0.7030     8.2416     1.5606 H       
  38 H38            1.4162     9.3521     6.2792 H       
  39 H39            2.0500    13.5759     6.1478 H       
  40 H40            4.1135    13.2275     4.8543 H       
  41 H41            4.8397    10.9477     4.2800 H       
  42 H42            0.9021    13.4923     7.8961 H       
  43 H43           -0.0296    13.5852     6.3824 H       
  44 H44           -1.3745    12.1718     8.7363 H       
  45 H45           -2.1857    14.4133     9.6034 H       
  46 H46           -1.0776    15.2765     8.4082 H       
  47 H47           -2.2816    14.1519     6.4796 H       
  48 H48           -3.3898    13.2887     7.6747 H       
@<TRIPOS>BOND
   1    1    2 am
   2    1    5 1
   3    1   29 1
   4    2    3 2
   5    2    4 am
   6    4   30 1
   7    4   31 1
   8    5    6 1
   9    5   11 1
  10    5   32 1
  11    6   33 1
  12    6   34 1
  13    6   35 1
  14    7    8 1
  15    7   11 1
  16    8    9 2
  17    9   10 1
  18    9   16 1
  19   10   11 2
  20   10   36 1
  21   12   13 1
  22   12   16 1
  23   13   14 2
  24   13   17 1
  25   14   15 1
  26   15   16 2
  27   15   37 1
  28   17   18 1
  29   18   19 ar
  30   18   23 ar
  31   19   20 ar
  32   19   38 1
  33   20   21 ar
  34   20   24 1
  35   21   22 ar
  36   21   39 1
  37   22   23 ar
  38   22   40 1
  39   23   41 1
  40   24   25 1
  41   25   26 1
  42   25   42 1
  43   25   43 1
  44   26   27 1
  45   26   28 1
  46   26   44 1
  47   27   28 1
  48   27   45 1
  49   27   46 1
  50   28   47 1
  51   28   48 1

#	End of record

