#	Name: ASD01910686
#	Creating user name:	WinNT
#	Creation time:	15. 06. 2019 19:56

#	Modifying user name:	WinNT
#	Modification time:	15. 06. 2019 19:56

#	Program:	/corina/corina34_cracker 3.40 0067  02.08.2006

@<TRIPOS>MOLECULE
ASD01910686
  50   53    0    0    0
SMALL
NO_CHARGES


@<TRIPOS>ATOM
   1 C1             0.0599     1.7639    -0.3713 C.ar    
   2 C2             0.0023     0.3770    -0.4015 C.ar    
   3 C3             1.1881    -0.3341    -0.3558 C.ar    
   4 C4             2.3909     0.3604    -0.2816 C.ar    
   5 N5             2.4041     1.6843    -0.2544 N.ar    
   6 C6             1.2891     2.3883    -0.2971 C.ar    
   7 N7             3.5899    -0.3416    -0.2351 N.3     
   8 C8             4.7345     0.5760    -0.1594 C.3     
   9 C9             6.0169    -0.2303     0.0721 C.3     
  10 N10            6.1148    -1.2620    -0.9716 N.am    
  11 C11            4.9521    -2.1333    -1.2001 C.3     
  12 C12            3.7117    -1.2520    -1.3815 C.3     
  13 C13            7.2404    -1.4055    -1.6989 C.2     
  14 C14            7.3646    -2.5262    -2.6556 C.ar    
  15 O15            8.1534    -0.6138    -1.5685 O.2     
  16 C16            7.9775    -2.3242    -3.8942 C.ar    
  17 C17            8.0947    -3.3693    -4.7896 C.ar    
  18 C18            7.6074    -4.6199    -4.4684 C.ar    
  19 C19            6.9909    -4.8368    -3.2320 C.ar    
  20 C20            6.8755    -3.7870    -2.3210 C.ar    
  21 C21            6.4847    -6.1345    -2.8999 C.1     
  22 C22            6.0697    -7.1985    -2.6277 C.1     
  23 C23            5.5636    -8.4962    -2.2956 C.ar    
  24 C24            4.9474    -8.7139    -1.0604 C.ar    
  25 C25            4.4611    -9.9658    -0.7444 C.ar    
  26 C26            4.5812   -11.0070    -1.6462 C.ar    
  27 C27            5.1924   -10.8010    -2.8762 C.ar    
  28 C28            5.6786    -9.5481    -3.2072 C.ar    
  29 O29            5.3077   -11.8288    -3.7578 O.3     
  30 H30           -0.8474     2.3484    -0.4099 H       
  31 H31           -0.9468    -0.1351    -0.4590 H       
  32 H32            1.1799    -1.4139    -0.3772 H       
  33 H33            1.3384     3.4669    -0.2730 H       
  34 H34            4.8178     1.1315    -1.0935 H       
  35 H35            4.5886     1.2723     0.6665 H       
  36 H36            6.8810     0.4317     0.0148 H       
  37 H37            5.9794    -0.7041     1.0530 H       
  38 H38            5.1122    -2.7295    -2.0984 H       
  39 H39            4.8123    -2.7900    -0.3415 H       
  40 H40            2.8239    -1.8816    -1.4419 H       
  41 H41            3.8092    -0.6711    -2.2986 H       
  42 H42            8.3605    -1.3480    -4.1527 H       
  43 H43            8.5696    -3.2069    -5.7459 H       
  44 H44            7.7020    -5.4326    -5.1733 H       
  45 H45            6.4007    -3.9484    -1.3645 H       
  46 H46            4.8522    -7.9029    -0.3536 H       
  47 H47            3.9854   -10.1330     0.2106 H       
  48 H48            4.1985   -11.9847    -1.3928 H       
  49 H49            6.1537    -9.3867    -4.1636 H       
  50 H50            4.5598   -11.9118    -4.3652 H       
@<TRIPOS>BOND
   1    1    2 ar
   2    1    6 ar
   3    1   30 1
   4    2    3 ar
   5    2   31 1
   6    3    4 ar
   7    3   32 1
   8    4    5 ar
   9    4    7 1
  10    5    6 ar
  11    6   33 1
  12    7    8 1
  13    7   12 1
  14    8    9 1
  15    8   34 1
  16    8   35 1
  17    9   10 1
  18    9   36 1
  19    9   37 1
  20   10   11 1
  21   10   13 am
  22   11   12 1
  23   11   38 1
  24   11   39 1
  25   12   40 1
  26   12   41 1
  27   13   14 1
  28   13   15 2
  29   14   16 ar
  30   14   20 ar
  31   16   17 ar
  32   16   42 1
  33   17   18 ar
  34   17   43 1
  35   18   19 ar
  36   18   44 1
  37   19   20 ar
  38   19   21 1
  39   20   45 1
  40   21   22 3
  41   22   23 1
  42   23   24 ar
  43   23   28 ar
  44   24   25 ar
  45   24   46 1
  46   25   26 ar
  47   25   47 1
  48   26   27 ar
  49   26   48 1
  50   27   28 ar
  51   27   29 1
  52   28   49 1
  53   29   50 1

#	End of record

