#	Name: ASD02039136
#	Creating user name:	WinNT
#	Creation time:	15. 06. 2019 20:17

#	Modifying user name:	WinNT
#	Modification time:	15. 06. 2019 20:17

#	Program:	/corina/corina34_cracker 3.40 0067  02.08.2006

@<TRIPOS>MOLECULE
ASD02039136
  48   50    0    0    0
SMALL
NO_CHARGES


@<TRIPOS>ATOM
   1 C1            -0.0177     1.4569     0.0101 C.2     
   2 C2             0.0021    -0.0041     0.0020 C.2     
   3 C3             1.1805    -0.6632    -0.0128 C.2     
   4 O4             1.0273     2.0794     0.0034 O.2     
   5 O5            -1.1952     2.1156     0.0192 O.3     
   6 N6             1.2140    -6.2917    -0.0396 N.am    
   7 C7             2.3720    -6.9739    -0.0534 C.2     
   8 C8             3.6208    -6.3156    -0.0627 C.2     
   9 C9             3.6775    -4.9611    -0.0578 C.2     
  10 C10            2.4205    -4.2087    -0.0427 C.ar    
  11 C11            2.4171    -2.8134    -0.0361 C.ar    
  12 C12            1.2004    -2.1335    -0.0209 C.ar    
  13 C13           -0.0064    -2.8516    -0.0127 C.ar    
  14 C14           -0.0041    -4.2148    -0.0191 C.ar    
  15 C15            1.2008    -4.9153    -0.0339 C.ar    
  16 O16            2.3432    -8.1922    -0.0576 O.2     
  17 C17           -0.0544    -7.0248    -0.0366 C.3     
  18 C18           -0.4792    -7.2878     1.3852 C.ar    
  19 C19           -1.2732    -6.3710     2.0491 C.ar    
  20 C20           -1.6640    -6.6097     3.3524 C.ar    
  21 C21           -1.2590    -7.7706     3.9952 C.ar    
  22 C22           -0.4624    -8.6889     3.3269 C.ar    
  23 C23           -0.0790    -8.4482     2.0217 C.ar    
  24 O24           -1.6418    -8.0075     5.2775 O.3     
  25 C25           -1.1876    -9.2231     5.8759 C.3     
  26 C26           -1.1398     3.5435     0.0267 C.3     
  27 C27           -2.5614     4.1090     0.0365 C.3     
  28 H28           -0.9258    -0.5567     0.0079 H       
  29 H29            2.1083    -0.1106    -0.0187 H       
  30 H30            4.5336    -6.8926    -0.0734 H       
  31 H31            4.6279    -4.4482    -0.0645 H       
  32 H32            3.3479    -2.2657    -0.0420 H       
  33 H33           -0.9456    -2.3186    -0.0009 H       
  34 H34           -0.9398    -4.7542    -0.0124 H       
  35 H35           -0.8179    -6.4319    -0.5401 H       
  36 H36            0.0726    -7.9729    -0.5591 H       
  37 H37           -1.5879    -5.4672     1.5484 H       
  38 H38           -2.2839    -5.8931     3.8707 H       
  39 H39           -0.1458    -9.5933     3.8251 H       
  40 H40            0.5372    -9.1650     1.4994 H       
  41 H41           -1.5553   -10.0717     5.2990 H       
  42 H42           -0.0978    -9.2370     5.8883 H       
  43 H43           -1.5634    -9.2879     6.8971 H       
  44 H44           -0.6081     3.8818     0.9160 H       
  45 H45           -0.6165     3.8915    -0.8639 H       
  46 H46           -3.0932     3.7707    -0.8528 H       
  47 H47           -3.0847     3.7610     0.9271 H       
  48 H48           -2.5192     5.1982     0.0423 H       
@<TRIPOS>BOND
   1    1    2 1
   2    1    4 2
   3    1    5 1
   4    2    3 2
   5    2   28 1
   6    3   12 1
   7    3   29 1
   8    5   26 1
   9    6    7 am
  10    6   15 1
  11    6   17 1
  12    7    8 1
  13    7   16 2
  14    8    9 2
  15    8   30 1
  16    9   10 1
  17    9   31 1
  18   10   11 ar
  19   10   15 ar
  20   11   12 ar
  21   11   32 1
  22   12   13 ar
  23   13   14 ar
  24   13   33 1
  25   14   15 ar
  26   14   34 1
  27   17   18 1
  28   17   35 1
  29   17   36 1
  30   18   19 ar
  31   18   23 ar
  32   19   20 ar
  33   19   37 1
  34   20   21 ar
  35   20   38 1
  36   21   22 ar
  37   21   24 1
  38   22   23 ar
  39   22   39 1
  40   23   40 1
  41   24   25 1
  42   25   41 1
  43   25   42 1
  44   25   43 1
  45   26   27 1
  46   26   44 1
  47   26   45 1
  48   27   46 1
  49   27   47 1
  50   27   48 1

#	End of record

