#	Name: ASD01901280
#	Creating user name:	WinNT
#	Creation time:	15. 06. 2019 19:53

#	Modifying user name:	WinNT
#	Modification time:	15. 06. 2019 19:53

#	Program:	/corina/corina34_cracker 3.40 0067  02.08.2006

@<TRIPOS>MOLECULE
ASD01901280
  47   50    0    0    0
SMALL
NO_CHARGES


@<TRIPOS>ATOM
   1 C1             0.8722     1.2812     0.9660 C.ar    
   2 N2             0.8373    -0.0333     0.9027 N.ar    
   3 C3             0.9090    -0.6782    -0.2462 C.ar    
   4 C4             1.0253     0.0049    -1.4434 C.ar    
   5 C5             1.0665     1.3878    -1.4334 C.ar    
   6 C6             0.9879     2.0453    -0.1984 C.ar    
   7 C7             1.0259     3.4752    -0.1307 C.1     
   8 C8             1.0571     4.6475    -0.0752 C.1     
   9 C9             1.0951     6.0774    -0.0074 C.ar    
  10 C10            1.0631     8.1148     1.2433 C.ar    
  11 C11            1.0226     6.7337     1.2301 C.ar    
  12 C12            1.2108     6.8395    -1.1722 C.ar    
  13 N13            1.2464     8.1544    -1.1130 N.ar    
  14 C14            1.1746     8.8036     0.0387 C.ar    
  15 N15            1.2161    10.1991     0.0455 N.am    
  16 N16            2.5301    12.1563     0.1416 N.am    
  17 C17            2.4039    10.8170     0.1291 C.2     
  18 C18            0.0603    10.8917    -0.0378 C.2     
  19 C19            3.8612    12.7610     0.2350 C.3     
  20 O20           -1.0065    10.3136    -0.1171 O.2     
  21 O21            3.4097    10.1374     0.1969 O.2     
  22 C22            4.5358    12.3110     1.5325 C.3     
  23 C23            4.7076    12.3180    -0.9601 C.3     
  24 Cl24           0.9761     8.9812     2.7452 Cl      
  25 N25           -0.1737    14.4741    -0.0465 N.pl3   
  26 C26            1.1717    14.3054     0.0540 C.2     
  27 C27            0.1205    12.3632    -0.0299 C.2     
  28 N28           -0.7642    13.3309    -0.0926 N.2     
  29 C29            1.4019    12.9732     0.0657 C.2     
  30 C30           -0.8542    15.7706    -0.0918 C.3     
  31 H31            0.8063     1.7733     1.9251 H       
  32 H32            0.8768    -1.7577    -0.2520 H       
  33 H33            1.0838    -0.5358    -2.3765 H       
  34 H34            1.1572     1.9461    -2.3534 H       
  35 H35            0.9368     6.1736     2.1495 H       
  36 H36            1.2720     6.3456    -2.1307 H       
  37 H37            3.7680    13.8470     0.2317 H       
  38 H38            4.6290    11.2250     1.5358 H       
  39 H39            5.5262    12.7608     1.6020 H       
  40 H40            3.9328    12.6265     2.3839 H       
  41 H41            4.2269    12.6386    -1.8844 H       
  42 H42            5.6980    12.7679    -0.8906 H       
  43 H43            4.8007    11.2320    -0.9568 H       
  44 H44            1.9151    15.0868     0.1106 H       
  45 H45           -0.9459    16.0969    -1.1278 H       
  46 H46           -1.8468    15.6756     0.3484 H       
  47 H47           -0.2762    16.5042     0.4703 H       
@<TRIPOS>BOND
   1    1    2 ar
   2    1    6 ar
   3    1   31 1
   4    2    3 ar
   5    3    4 ar
   6    3   32 1
   7    4    5 ar
   8    4   33 1
   9    5    6 ar
  10    5   34 1
  11    6    7 1
  12    7    8 3
  13    8    9 1
  14    9   12 ar
  15    9   11 ar
  16   10   11 ar
  17   10   14 ar
  18   10   24 1
  19   11   35 1
  20   12   13 ar
  21   12   36 1
  22   13   14 ar
  23   14   15 1
  24   15   18 am
  25   15   17 am
  26   16   17 am
  27   16   29 1
  28   16   19 1
  29   17   21 2
  30   18   27 1
  31   18   20 2
  32   19   22 1
  33   19   23 1
  34   19   37 1
  35   22   38 1
  36   22   39 1
  37   22   40 1
  38   23   41 1
  39   23   42 1
  40   23   43 1
  41   25   26 1
  42   25   28 1
  43   25   30 1
  44   26   29 2
  45   26   44 1
  46   27   28 2
  47   27   29 1
  48   30   45 1
  49   30   46 1
  50   30   47 1

#	End of record

