#	Name: ASD01948235
#	Creating user name:	WinNT
#	Creation time:	15. 06. 2019 20:14

#	Modifying user name:	WinNT
#	Modification time:	15. 06. 2019 20:14

#	Program:	/corina/corina34_cracker 3.40 0067  02.08.2006

@<TRIPOS>MOLECULE
ASD01948235
  30   32    0    0    0
SMALL
NO_CHARGES


@<TRIPOS>ATOM
   1 C1            -0.0167     1.3797     0.0096 C.ar    
   2 C2             0.0021    -0.0041     0.0020 C.ar    
   3 C3             1.2076    -0.6821    -0.0127 C.ar    
   4 C4             2.3976     0.0202    -0.0199 C.ar    
   5 C5             2.3837     1.4076    -0.0128 C.ar    
   6 C6             1.1708     2.0879     0.0021 C.ar    
   7 C7             4.0443     2.4169    -2.5170 C.ar    
   8 C8             4.2823     2.5440    -1.1547 C.ar    
   9 N9             3.5900     2.1223    -0.0196 N.am    
  10 C10            4.9380     2.9556    -3.4268 C.ar    
  11 C11            6.0700     3.6211    -2.9833 C.ar    
  12 C12            6.3146     3.7523    -1.6261 C.ar    
  13 C13            5.4207     3.2139    -0.7071 C.ar    
  14 N14            5.3865     3.1795     0.6881 N.am    
  15 C15            4.2771     2.5183     1.0684 C.2     
  16 O16            3.9454     2.3106     2.2208 O.2     
  17 Br17          -1.6237    -0.9699     0.0124 Br      
  18 F18            4.7061     2.8317    -4.7520 F       
  19 F19            1.1528     3.4388     0.0086 F       
  20 F20            2.9453     1.7637    -2.9538 F       
  21 O21            7.4264     4.4056    -1.1936 O.3     
  22 C22            8.3000     4.9321    -2.1945 C.3     
  23 H23           -0.9594     1.9066     0.0170 H       
  24 H24            1.2188    -1.7620    -0.0183 H       
  25 H25            3.3381    -0.5106    -0.0307 H       
  26 H26            6.7637     4.0386    -3.6981 H       
  27 H27            6.0491     3.5657     1.2820 H       
  28 H28            8.6637     4.1195    -2.8233 H       
  29 H29            7.7577     5.6515    -2.8081 H       
  30 H30            9.1448     5.4270    -1.7155 H       
@<TRIPOS>BOND
   1    1    2 ar
   2    1    6 ar
   3    1   23 1
   4    2    3 ar
   5    2   17 1
   6    3    4 ar
   7    3   24 1
   8    4    5 ar
   9    4   25 1
  10    5    6 ar
  11    5    9 1
  12    6   19 1
  13    7    8 ar
  14    7   10 ar
  15    7   20 1
  16    8    9 1
  17    8   13 ar
  18    9   15 am
  19   10   11 ar
  20   10   18 1
  21   11   12 ar
  22   11   26 1
  23   12   13 ar
  24   12   21 1
  25   13   14 1
  26   14   15 am
  27   14   27 1
  28   15   16 2
  29   21   22 1
  30   22   28 1
  31   22   29 1
  32   22   30 1

#	End of record

