#	Name: ASD01410034
#	Creating user name:	WinNT
#	Creation time:	15. 06. 2019 19:16

#	Modifying user name:	WinNT
#	Modification time:	15. 06. 2019 19:16

#	Program:	/corina/corina34_cracker 3.40 0067  02.08.2006

@<TRIPOS>MOLECULE
ASD01410034
  38   39    0    0    0
SMALL
NO_CHARGES


@<TRIPOS>ATOM
   1 C1            -0.0074     1.3989     0.0865 C.ar    
   2 C2             0.0071     0.0230     0.0736 C.ar    
   3 C3             1.2284    -0.6620     0.0452 C.ar    
   4 C4             2.4308     0.0645     0.0301 C.ar    
   5 C5             2.3957     1.4501     0.0434 C.ar    
   6 C6             1.1829     2.1124     0.0715 C.ar    
   7 O7             3.6200    -0.5867     0.0030 O.3     
   8 C8             4.8004     0.2186    -0.0110 C.3     
   9 C9             6.0157    -0.6720    -0.0407 C.2     
  10 N10            7.2490    -0.1287    -0.0580 N.am    
  11 C11            8.3719    -0.9478     0.0279 C.ar    
  12 C12            8.3384    -2.0984     0.8036 C.ar    
  13 C13            9.4528    -2.9091     0.8874 C.ar    
  14 C14           10.6109    -2.5825     0.2008 C.ar    
  15 C15           10.6631    -1.4442    -0.5743 C.ar    
  16 C16            9.5416    -0.6172    -0.6741 C.ar    
  17 C17            9.5902     0.6015    -1.5016 C.2     
  18 O18           10.7480     0.9781    -2.0789 O.3     
  19 O19            8.5861     1.2665    -1.6633 O.2     
  20 O20            5.8840    -1.8775    -0.0490 O.2     
  21 C21            1.2520    -2.1289     0.0318 C.2     
  22 C22           -0.0406    -2.9034     0.0486 C.3     
  23 O23            2.3120    -2.7182     0.0072 O.2     
  24 Cl24           1.1483     3.8480     0.0886 Cl      
  25 H25           -0.9498     1.9262     0.1038 H       
  26 H26           -0.9218    -0.5279     0.0857 H       
  27 H27            3.3173     2.0130     0.0319 H       
  28 H28            4.7951     0.8557    -0.8955 H       
  29 H29            4.8270     0.8399     0.8841 H       
  30 H30            7.3544     0.8328    -0.1302 H       
  31 H31            7.4396    -2.3597     1.3425 H       
  32 H32            9.4217    -3.8033     1.4923 H       
  33 H33           11.4774    -3.2231     0.2737 H       
  34 H34           11.5685    -1.1940    -1.1073 H       
  35 H35           10.7306     1.7844    -2.6125 H       
  36 H36           -0.8802    -2.2087     0.0701 H       
  37 H37           -0.1046    -3.5230    -0.8459 H       
  38 H38           -0.0720    -3.5388     0.9337 H       
@<TRIPOS>BOND
   1    1    2 ar
   2    1    6 ar
   3    1   25 1
   4    2    3 ar
   5    2   26 1
   6    3    4 ar
   7    3   21 1
   8    4    5 ar
   9    4    7 1
  10    5    6 ar
  11    5   27 1
  12    6   24 1
  13    7    8 1
  14    8    9 1
  15    8   28 1
  16    8   29 1
  17    9   10 am
  18    9   20 2
  19   10   11 1
  20   10   30 1
  21   11   12 ar
  22   11   16 ar
  23   12   13 ar
  24   12   31 1
  25   13   14 ar
  26   13   32 1
  27   14   15 ar
  28   14   33 1
  29   15   16 ar
  30   15   34 1
  31   16   17 1
  32   17   18 1
  33   17   19 2
  34   18   35 1
  35   21   22 1
  36   21   23 2
  37   22   36 1
  38   22   37 1
  39   22   38 1

#	End of record

