#	Name: ASD03082184
#	Creating user name:	WinNT
#	Creation time:	15. 06. 2019 20:27

#	Modifying user name:	WinNT
#	Modification time:	15. 06. 2019 20:27

#	Program:	/corina/corina34_cracker 3.40 0067  02.08.2006

@<TRIPOS>MOLECULE
ASD03082184
  42   44    0    0    0
SMALL
NO_CHARGES


@<TRIPOS>ATOM
   1 C1             0.0508     1.4257    -0.2080 C.ar    
   2 C2             0.0233     0.1045     0.2197 C.ar    
   3 C3             1.1657    -0.4706     0.7626 C.ar    
   4 C4             2.3240     0.2725     0.8752 C.ar    
   5 C5             2.3477     1.5880     0.4487 C.ar    
   6 C6             1.2128     2.1633    -0.0924 C.ar    
   7 N7            -1.1508    -0.6445     0.1047 N.pl3   
   8 H8            -1.1029    -1.6047    -0.0241 H       
   9 C9            -2.3930    -0.0107     0.1752 C.2     
  10 N10           -3.5743    -0.5993    -0.0154 N.2     
  11 N11           -2.5863     1.2601     0.4456 N.2     
  12 N12           -3.9732     1.4782     0.4159 N.pl3   
  13 C13           -4.5402     0.2863     0.1244 C.2     
  14 C14           -4.6680     2.7452     0.6573 C.3     
  15 C15           -5.9900     0.0225    -0.0141 C.ar    
  16 C16           -6.8878     1.0624    -0.2772 C.ar    
  17 C17           -8.2314     0.7715    -0.3991 C.ar    
  18 N18           -8.6708    -0.4655    -0.2709 N.ar    
  19 C19           -7.8583    -1.4749    -0.0227 C.ar    
  20 C20           -6.4996    -1.2747     0.1089 C.ar    
  21 O21           -4.8104     3.4528    -0.5761 O.3     
  22 C22           -8.4213    -2.8661     0.1136 C.3     
  23 C23           -9.5148    -2.8712     1.1838 C.3     
  24 C24            3.5635    -0.3504     1.4639 C.3     
  25 F25            4.3185    -0.9399     0.4443 F       
  26 F26            4.3258     0.6370     2.0973 F       
  27 F27            3.1970    -1.3264     2.3967 F       
  28 H28           -0.8342     1.8744    -0.6346 H       
  29 H29            1.1476    -1.4975     1.0965 H       
  30 H30            3.2549     2.1672     0.5386 H       
  31 H31            1.2348     3.1908    -0.4245 H       
  32 H32           -5.6537     2.5448     1.0771 H       
  33 H33           -4.0906     3.3485     1.3577 H       
  34 H34           -6.5350     2.0776    -0.3831 H       
  35 H35           -8.9325     1.5675    -0.6019 H       
  36 H36           -5.8404    -2.1057     0.3121 H       
  37 H37           -5.2629     4.3032    -0.4916 H       
  38 H38           -8.8447    -3.1817    -0.8399 H       
  39 H39           -7.6262    -3.5530     0.4034 H       
  40 H40           -9.9220    -3.8774     1.2823 H       
  41 H41           -9.0915    -2.5555     2.1373 H       
  42 H42          -10.3099    -2.1842     0.8940 H       
@<TRIPOS>BOND
   1    1    2 ar
   2    1    6 ar
   3    1   28 1
   4    2    3 ar
   5    2    7 1
   6    3    4 ar
   7    3   29 1
   8    4    5 ar
   9    4   24 1
  10    5    6 ar
  11    5   30 1
  12    6   31 1
  13    7    8 1
  14    7    9 1
  15    9   10 1
  16    9   11 2
  17   10   13 2
  18   11   12 1
  19   12   13 1
  20   12   14 1
  21   13   15 1
  22   14   21 1
  23   14   32 1
  24   14   33 1
  25   15   16 ar
  26   15   20 ar
  27   16   17 ar
  28   16   34 1
  29   17   18 ar
  30   17   35 1
  31   18   19 ar
  32   19   20 ar
  33   19   22 1
  34   20   36 1
  35   21   37 1
  36   22   23 1
  37   22   38 1
  38   22   39 1
  39   23   40 1
  40   23   41 1
  41   23   42 1
  42   24   25 1
  43   24   26 1
  44   24   27 1

#	End of record

