#	Name: ASD01908173
#	Creating user name:	WinNT
#	Creation time:	15. 06. 2019 19:54

#	Modifying user name:	WinNT
#	Modification time:	15. 06. 2019 19:54

#	Program:	/corina/corina34_cracker 3.40 0067  02.08.2006

@<TRIPOS>MOLECULE
ASD01908173
  49   52    0    0    0
SMALL
NO_CHARGES


@<TRIPOS>ATOM
   1 S1             0.5722     2.3314     0.7738 S.3     
   2 C2             0.4485     0.5802     0.9145 C.2     
   3 N3             1.6207     0.0512     0.7395 N.2     
   4 C4             2.6257     0.8822     0.5025 C.2     
   5 C5             2.3022     2.1853     0.4725 C.2     
   6 N6            -0.7187    -0.1233     1.1728 N.pl3   
   7 C7            -1.8955     0.5621     1.4581 C.ar    
   8 C8            -3.0857    -0.1432     1.6053 C.ar    
   9 C9            -4.2479     0.5507     1.8892 C.ar    
  10 C10           -4.1808     1.9320     2.0169 C.ar    
  11 C11           -2.9657     2.5674     1.8579 C.ar    
  12 N12           -1.8717     1.8791     1.5923 N.ar    
  13 N13            5.7611    -0.8981     0.0590 N.pl3   
  14 N14            6.1797     0.4280    -0.1048 N.2     
  15 C15            5.1415     1.2105     0.0293 C.2     
  16 C16            4.0156     0.4047     0.2853 C.2     
  17 C17            4.4324    -0.8937     0.2973 C.2     
  18 C18            6.6159    -2.0852    -0.0207 C.3     
  19 C19            6.7672    -2.4994    -1.4617 C.ar    
  20 C20            7.7845    -1.9647    -2.2304 C.ar    
  21 C21            7.9252    -2.3429    -3.5516 C.ar    
  22 C22            7.0448    -3.2600    -4.1070 C.ar    
  23 C23            6.0249    -3.7951    -3.3335 C.ar    
  24 C24            5.8919    -3.4179    -2.0112 C.ar    
  25 O25            7.1809    -3.6333    -5.4066 O.3     
  26 C26            6.2386    -4.5815    -5.9113 C.3     
  27 C27            3.5665    -2.1043     0.5333 C.3     
  28 C28            3.4237    -2.3439     2.0376 C.3     
  29 H29            2.9848     3.0029     0.2940 H       
  30 H30           -0.7145    -1.0932     1.1546 H       
  31 H31           -3.1018    -1.2178     1.4990 H       
  32 H32           -5.1866     0.0301     2.0086 H       
  33 H33           -5.0703     2.5032     2.2379 H       
  34 H34           -2.9090     3.6415     1.9560 H       
  35 H35            5.1464     2.2881    -0.0433 H       
  36 H36            7.5965    -1.8554     0.3962 H       
  37 H37            6.1620    -2.8985     0.5455 H       
  38 H38            8.4694    -1.2505    -1.7977 H       
  39 H39            8.7198    -1.9246    -4.1518 H       
  40 H40            5.3383    -4.5092    -3.7636 H       
  41 H41            5.1010    -3.8377    -1.4074 H       
  42 H42            6.3055    -5.5032    -5.3333 H       
  43 H43            5.2316    -4.1727    -5.8279 H       
  44 H44            6.4598    -4.7920    -6.9577 H       
  45 H45            2.5817    -1.9373     0.0969 H       
  46 H46            4.0266    -2.9763     0.0685 H       
  47 H47            4.3963    -2.5982     2.4589 H       
  48 H48            3.0460    -1.4399     2.5153 H       
  49 H49            2.7272    -3.1643     2.2104 H       
@<TRIPOS>BOND
   1    1    2 1
   2    1    5 1
   3    2    3 2
   4    2    6 1
   5    3    4 1
   6    4    5 2
   7    4   16 1
   8    5   29 1
   9    6    7 1
  10    6   30 1
  11    7    8 ar
  12    7   12 ar
  13    8    9 ar
  14    8   31 1
  15    9   10 ar
  16    9   32 1
  17   10   11 ar
  18   10   33 1
  19   11   12 ar
  20   11   34 1
  21   13   14 1
  22   13   17 1
  23   13   18 1
  24   14   15 2
  25   15   16 1
  26   15   35 1
  27   16   17 2
  28   17   27 1
  29   18   19 1
  30   18   36 1
  31   18   37 1
  32   19   20 ar
  33   19   24 ar
  34   20   21 ar
  35   20   38 1
  36   21   22 ar
  37   21   39 1
  38   22   23 ar
  39   22   25 1
  40   23   24 ar
  41   23   40 1
  42   24   41 1
  43   25   26 1
  44   26   42 1
  45   26   43 1
  46   26   44 1
  47   27   28 1
  48   27   45 1
  49   27   46 1
  50   28   47 1
  51   28   48 1
  52   28   49 1

#	End of record

