#	Name: ASD03091017
#	Creating user name:	WinNT
#	Creation time:	15. 06. 2019 20:29

#	Modifying user name:	WinNT
#	Modification time:	15. 06. 2019 20:29

#	Program:	/corina/corina34_cracker 3.40 0067  02.08.2006

@<TRIPOS>MOLECULE
ASD03091017
  52   56    0    0    0
SMALL
NO_CHARGES


@<TRIPOS>ATOM
   1 N1            -0.0526     1.4551     0.0452 N.am    
   2 C2             0.0096     0.0838    -0.0298 C.2     
   3 C3            -1.1057    -0.6859    -0.0905 C.2     
   4 C4            -2.4195    -0.0471    -0.0759 C.ar    
   5 C5            -2.4817     1.3646     0.0019 C.ar    
   6 C6            -1.2250     2.1188     0.0686 C.2     
   7 O7            -1.2412     3.3347     0.1363 O.2     
   8 C8            -3.6007    -0.7918    -0.1367 C.ar    
   9 C9            -4.8067    -0.1522    -0.1207 C.ar    
  10 C10           -4.8768     1.2395    -0.0442 C.ar    
  11 C11           -3.7221     2.0008     0.0171 C.ar    
  12 N12           -6.1233     1.8701    -0.0293 N.3     
  13 C13           -6.6526     1.9583     1.3388 C.3     
  14 C14            1.1959     2.2190     0.1077 C.3     
  15 C15           -7.0734     1.1778    -0.9081 C.3     
  16 C16           -8.3766     1.9446    -1.0708 C.3     
  17 N17           -9.0668     2.0761     0.2214 N.3     
  18 C18           -8.9520     0.9523     1.1260 C.3     
  19 C19           -7.5269     0.7484     1.6132 C.3     
  20 C20           -7.3692     3.2842     1.5462 C.3     
  21 C21           -8.7141     3.3563     0.8517 C.3     
  22 C22            1.3338    -0.5727    -0.0453 C.ar    
  23 C23            2.3202    -0.1401    -0.9330 C.ar    
  24 C24            3.5546    -0.7565    -0.9425 C.ar    
  25 C25            3.8162    -1.8017    -0.0752 C.ar    
  26 C26            2.8424    -2.2363     0.8085 C.ar    
  27 C27            1.6052    -1.6242     0.8319 C.ar    
  28 Cl28           3.1801    -3.5493     1.8928 Cl      
  29 H29           -1.0231    -1.7612    -0.1495 H       
  30 H30           -3.5595    -1.8694    -0.1966 H       
  31 H31           -5.7177    -0.7303    -0.1682 H       
  32 H32           -3.7817     3.0775     0.0763 H       
  33 H33           -5.8103     1.9171     2.0294 H       
  34 H34            1.5702     2.3868    -0.9022 H       
  35 H35            1.0110     3.1785     0.5908 H       
  36 H36            1.9355     1.6601     0.6811 H       
  37 H37           -6.6162     1.0466    -1.8888 H       
  38 H38           -7.2917     0.1959    -0.4882 H       
  39 H39           -8.1620     2.9376    -1.4659 H       
  40 H40           -9.0216     1.4124    -1.7699 H       
  41 H41           -9.5987     1.1237     1.9865 H       
  42 H42           -9.2824     0.0496     0.6120 H       
  43 H43           -7.1005    -0.1186     1.1085 H       
  44 H44           -7.5431     0.5591     2.6865 H       
  45 H45           -7.5192     3.4370     2.6150 H       
  46 H46           -6.7364     4.0865     1.1667 H       
  47 H47           -8.6783     4.1318     0.0865 H       
  48 H48           -9.4791     3.6153     1.5836 H       
  49 H49            2.1174     0.6754    -1.6115 H       
  50 H50            4.3183    -0.4222    -1.6291 H       
  51 H51            4.7839    -2.2811    -0.0872 H       
  52 H52            0.8463    -1.9634     1.5214 H       
@<TRIPOS>BOND
   1    1    2 1
   2    1   14 1
   3    1    6 am
   4    2    3 2
   5    2   22 1
   6    3    4 1
   7    3   29 1
   8    4    5 ar
   9    4    8 ar
  10    5    6 1
  11    5   11 ar
  12    6    7 2
  13    8    9 ar
  14    8   30 1
  15    9   10 ar
  16    9   31 1
  17   10   11 ar
  18   10   12 1
  19   11   32 1
  20   12   15 1
  21   12   13 1
  22   13   20 1
  23   13   19 1
  24   13   33 1
  25   14   34 1
  26   14   35 1
  27   14   36 1
  28   15   16 1
  29   15   37 1
  30   15   38 1
  31   16   17 1
  32   16   39 1
  33   16   40 1
  34   17   18 1
  35   17   21 1
  36   18   19 1
  37   18   41 1
  38   18   42 1
  39   19   43 1
  40   19   44 1
  41   20   21 1
  42   20   45 1
  43   20   46 1
  44   21   47 1
  45   21   48 1
  46   22   23 ar
  47   22   27 ar
  48   23   24 ar
  49   23   49 1
  50   24   25 ar
  51   24   50 1
  52   25   26 ar
  53   25   51 1
  54   26   27 ar
  55   26   28 1
  56   27   52 1

#	End of record

