#	Name: ASD08710030
#	Creating user name:	WinNT
#	Creation time:	15. 06. 2019 21:19

#	Modifying user name:	WinNT
#	Modification time:	15. 06. 2019 21:19

#	Program:	/corina/corina34_cracker 3.40 0067  02.08.2006

@<TRIPOS>MOLECULE
ASD08710030
  46   48    0    0    0
SMALL
NO_CHARGES


@<TRIPOS>ATOM
   1 C1            -0.8727    -0.2503    -1.4220 C.ar    
   2 C2            -0.6190    -1.5713    -1.1036 C.ar    
   3 C3             0.1762     0.6352    -1.5847 C.ar    
   4 C4             1.4789     0.1997    -1.4291 C.ar    
   5 C5             1.7326    -1.1213    -1.1103 C.ar    
   6 C6             0.6837    -2.0069    -0.9480 C.ar    
   7 S7             1.0071    -3.6905    -0.5410 S.o2    
   8 O8            -0.1242    -4.4326    -0.9753 O.2     
   9 O9             2.3306    -3.9625    -0.9809 O.2     
  10 N10            1.0317    -3.7994     1.1112 N.am    
  11 C11           -0.1996    -4.0866     1.8603 C.3     
  12 C12            2.2865    -3.6167     1.8542 C.3     
  13 C13            2.5193    -4.8512     2.7340 C.3     
  14 N14            1.2869    -5.1328     3.4835 N.am    
  15 C15            0.0384    -5.3201     2.7401 C.3     
  16 C16            1.3071    -5.2224     4.8282 C.2     
  17 C17            2.8697    -6.0515     1.8523 C.3     
  18 C18            0.0375    -5.3503     5.5813 C.ar    
  19 O19            2.3666    -5.1982     5.4228 O.2     
  20 N20           -1.1027    -4.9695     5.0185 N.ar    
  21 C21           -2.2516    -5.0659     5.6518 C.ar    
  22 C22           -2.3142    -5.5724     6.9393 C.ar    
  23 C23           -1.1461    -5.9826     7.5661 C.ar    
  24 C24            0.0501    -5.8743     6.8715 C.ar    
  25 Cl25          -1.1816    -6.6231     9.1793 Cl      
  26 F26           -0.2396     2.8203    -0.7564 F       
  27 F27            0.9628     2.5859    -2.6847 F       
  28 C28           -0.1004     2.0753    -1.9322 C.3     
  29 F29           -1.2810     2.1565    -2.6783 F       
  30 H30           -1.8903     0.0890    -1.5480 H       
  31 H31           -1.4385    -2.2631    -0.9761 H       
  32 H32            2.2985     0.8913    -1.5569 H       
  33 H33            2.7504    -1.4617    -0.9894 H       
  34 H34           -0.4532    -3.2326     2.4885 H       
  35 H35           -1.0137    -4.2858     1.1635 H       
  36 H36            3.1139    -3.5058     1.1533 H       
  37 H37            2.2140    -2.7285     2.4819 H       
  38 H38            3.3345    -4.6555     3.4306 H       
  39 H39           -0.7906    -5.4304     3.4392 H       
  40 H40            0.1145    -6.2102     2.1156 H       
  41 H41            3.7754    -5.8343     1.2861 H       
  42 H42            3.0346    -6.9274     2.4797 H       
  43 H43            2.0486    -6.2478     1.1628 H       
  44 H44           -3.1587    -4.7454     5.1610 H       
  45 H45           -3.2626    -5.6470     7.4505 H       
  46 H46            0.9786    -6.1839     7.3280 H       
@<TRIPOS>BOND
   1    1    2 ar
   2    1    3 ar
   3    1   30 1
   4    2    6 ar
   5    2   31 1
   6    3    4 ar
   7    3   28 1
   8    4    5 ar
   9    4   32 1
  10    5    6 ar
  11    5   33 1
  12    6    7 1
  13    7    8 2
  14    7    9 2
  15    7   10 am
  16   10   11 1
  17   10   12 1
  18   11   15 1
  19   11   34 1
  20   11   35 1
  21   12   13 1
  22   12   36 1
  23   12   37 1
  24   13   14 1
  25   13   17 1
  26   13   38 1
  27   14   15 1
  28   14   16 am
  29   15   39 1
  30   15   40 1
  31   16   18 1
  32   16   19 2
  33   17   41 1
  34   17   42 1
  35   17   43 1
  36   18   20 ar
  37   18   24 ar
  38   20   21 ar
  39   21   22 ar
  40   21   44 1
  41   22   23 ar
  42   22   45 1
  43   23   24 ar
  44   23   25 1
  45   24   46 1
  46   26   28 1
  47   27   28 1
  48   28   29 1

#	End of record

