#	Name: ASD07930473
#	Creating user name:	WinNT
#	Creation time:	15. 06. 2019 21:12

#	Modifying user name:	WinNT
#	Modification time:	15. 06. 2019 21:12

#	Program:	/corina/corina34_cracker 3.40 0067  02.08.2006

@<TRIPOS>MOLECULE
ASD07930473
  49   51    0    0    0
SMALL
NO_CHARGES


@<TRIPOS>ATOM
   1 C1            -0.1441     1.4651     0.3086 C.3     
   2 N2             0.5896    -0.2177    -2.0452 N.2     
   3 N3            -0.9976    -1.6992    -1.1808 N.pl3   
   4 C4            -0.9256    -2.8146    -0.2311 C.3     
   5 C5            -1.1669    -2.2859     1.1896 C.3     
   6 S6             0.0525    -0.9767     1.5265 S.o2    
   7 N7            -0.0852     0.0062     0.1881 N.am    
   8 C8            -0.1417    -0.6252    -1.0462 C.2     
   9 C9             0.4586    -3.4619    -0.3072 C.3     
  10 C10           -1.9794    -3.8360    -0.5737 C.ar    
  11 C11           -2.8117    -3.6319    -1.6564 C.ar    
  12 C12           -3.7828    -4.5738    -1.9716 C.ar    
  13 C13           -3.9137    -5.7186    -1.1964 C.ar    
  14 C14           -3.0784    -5.9177    -0.1145 C.ar    
  15 C15           -2.1082    -4.9806     0.1938 C.ar    
  16 N16           -4.6277    -4.3694    -3.0675 N.am    
  17 C17           -5.0475    -5.4199    -3.8000 C.2     
  18 O18           -4.6179    -6.5332    -3.5679 O.2     
  19 O19           -0.3685    -0.1629     2.6126 O.2     
  20 O20            1.3757    -1.4903     1.4583 O.2     
  21 Cl21          -1.0597    -5.2343     1.5539 Cl      
  22 C22           -6.0309    -5.2184    -4.8860 C.ar    
  23 N23           -6.4958    -3.9993    -5.1337 N.ar    
  24 C24           -7.3700    -3.7747    -6.0884 C.ar    
  25 C25           -7.8438    -4.8168    -6.8810 C.ar    
  26 C26           -7.3805    -6.1097    -6.6527 C.ar    
  27 C27           -6.4563    -6.3098    -5.6433 C.ar    
  28 O28           -8.7472    -4.5750    -7.8646 O.3     
  29 C29           -9.1736    -3.2218    -8.0356 C.3     
  30 H30            0.8654     1.8741     0.2678 H       
  31 H31           -0.7351     1.8738    -0.5110 H       
  32 H32           -0.6065     1.7328     1.2587 H       
  33 H33            1.1861     0.5388    -1.9327 H       
  34 H34           -1.6431    -1.7183    -1.9046 H       
  35 H35           -2.1747    -1.8773     1.2634 H       
  36 H36           -1.0446    -3.0959     1.9087 H       
  37 H37            1.2196    -2.7227    -0.0573 H       
  38 H38            0.5114    -4.2907     0.3987 H       
  39 H39            0.6309    -3.8335    -1.3173 H       
  40 H40           -2.7081    -2.7406    -2.2574 H       
  41 H41           -4.6681    -6.4523    -1.4391 H       
  42 H42           -3.1797    -6.8078     0.4886 H       
  43 H43           -4.9113    -3.4715    -3.3004 H       
  44 H44           -7.7257    -2.7696    -6.2603 H       
  45 H45           -7.7314    -6.9365    -7.2526 H       
  46 H46           -6.0754    -7.2995    -5.4385 H       
  47 H47           -9.6405    -2.8691    -7.1160 H       
  48 H48           -8.3121    -2.5961    -8.2689 H       
  49 H49           -9.8935    -3.1682    -8.8523 H       
@<TRIPOS>BOND
   1    1    7 1
   2    1   30 1
   3    1   31 1
   4    1   32 1
   5    2    8 2
   6    2   33 1
   7    3    4 1
   8    3    8 1
   9    3   34 1
  10    4    5 1
  11    4    9 1
  12    4   10 1
  13    5    6 1
  14    5   35 1
  15    5   36 1
  16    6    7 am
  17    6   19 2
  18    6   20 2
  19    7    8 1
  20    9   37 1
  21    9   38 1
  22    9   39 1
  23   10   11 ar
  24   10   15 ar
  25   11   12 ar
  26   11   40 1
  27   12   13 ar
  28   12   16 1
  29   13   14 ar
  30   13   41 1
  31   14   15 ar
  32   14   42 1
  33   15   21 1
  34   16   17 am
  35   16   43 1
  36   17   18 2
  37   17   22 1
  38   22   23 ar
  39   22   27 ar
  40   23   24 ar
  41   24   25 ar
  42   24   44 1
  43   25   26 ar
  44   25   28 1
  45   26   27 ar
  46   26   45 1
  47   27   46 1
  48   28   29 1
  49   29   47 1
  50   29   48 1
  51   29   49 1

#	End of record

