#	Name: ASD01190141
#	Creating user name:	WinNT
#	Creation time:	15. 06. 2019 19:07

#	Modifying user name:	WinNT
#	Modification time:	15. 06. 2019 19:07

#	Program:	/corina/corina34_cracker 3.40 0067  02.08.2006

@<TRIPOS>MOLECULE
ASD01190141
  17   17    0    0    0
SMALL
NO_CHARGES


@<TRIPOS>ATOM
   1 N1            -0.0153     1.2805     0.0091 N.pl3   
   2 N2             0.0021    -0.0041     0.0020 N.2     
   3 C3             1.2457    -0.4409    -0.0122 C.2     
   4 C4             2.0862     0.6982    -0.0141 C.2     
   5 C5             1.2513     1.7647    -0.0004 C.2     
   6 C6             1.6670    -1.8095    -0.0229 C.1     
   7 N7             2.0011    -2.8952    -0.0313 N.1     
   8 Br8            3.9770     0.7252    -0.0311 Br      
   9 C9            -1.2277     2.1029     0.0195 C.3     
  10 C10           -2.1069     1.7164    -1.1418 C.2     
  11 C11           -3.3506     1.3622    -0.9323 C.2     
  12 H12            1.5402     2.8054     0.0024 H       
  13 H13           -1.7674     1.9427     0.9529 H       
  14 H14           -0.9541     3.1545    -0.0661 H       
  15 H15           -1.7117     1.7314    -2.1467 H       
  16 H16           -3.7458     1.3471     0.0727 H       
  17 H17           -3.9807     1.0852    -1.7645 H       
@<TRIPOS>BOND
   1    1    2 1
   2    1    5 1
   3    1    9 1
   4    2    3 2
   5    3    4 1
   6    3    6 1
   7    4    5 2
   8    4    8 1
   9    5   12 1
  10    6    7 3
  11    9   10 1
  12    9   13 1
  13    9   14 1
  14   10   11 2
  15   10   15 1
  16   11   16 1
  17   11   17 1

#	End of record

