#	Name: ASD04590818
#	Creating user name:	WinNT
#	Creation time:	15. 06. 2019 20:51

#	Modifying user name:	WinNT
#	Modification time:	15. 06. 2019 20:51

#	Program:	/corina/corina34_cracker 3.40 0067  02.08.2006

@<TRIPOS>MOLECULE
ASD04590818
  66   71    0    0    0
SMALL
NO_CHARGES


@<TRIPOS>ATOM
   1 N1            -2.4465    -2.7636     0.0123 N.ar    
   2 C2            -1.2732    -2.1442    -0.0064 C.ar    
   3 N3            -0.1260    -2.8029    -0.0320 N.ar    
   4 C4            -0.1089    -4.1325    -0.0394 C.ar    
   5 C5            -1.3390    -4.8203    -0.0196 C.ar    
   6 C6            -2.5195    -4.0844     0.0066 C.ar    
   7 N7             0.9050    -5.0578    -0.0639 N.pl3   
   8 C8             0.3881    -6.3419    -0.0609 C.ar    
   9 C9            -1.0151    -6.2525    -0.0335 C.ar    
  10 C10            0.9710    -7.6023    -0.0792 C.ar    
  11 N11            0.2230    -8.6868    -0.0715 N.ar    
  12 C12           -1.0972    -8.6374    -0.0460 C.ar    
  13 C13           -1.7622    -7.4298    -0.0251 C.ar    
  14 N14           -1.2485    -0.7594     0.0006 N.pl3   
  15 C15           -2.4407    -0.0399    -0.0880 C.ar    
  16 N16           -3.5850    -0.6746    -0.2810 N.ar    
  17 N17           -4.7049    -0.0537    -0.3687 N.ar    
  18 C18           -4.7899     1.2631    -0.2719 C.ar    
  19 C19           -3.6354     2.0206    -0.0675 C.ar    
  20 C20           -2.4291     1.3504     0.0327 C.ar    
  21 N21           -6.0287     1.8922    -0.3741 N.3     
  22 C22           -6.0199     2.9019    -1.4402 C.3     
  23 C23           -7.4304     3.4673    -1.6209 C.3     
  24 C24           -7.8969     4.0930    -0.3036 C.3     
  25 C25           -7.8507     3.0330     0.8004 C.3     
  26 C26           -6.4279     2.4802     0.9109 C.3     
  27 C27            2.3331    -4.7320    -0.0900 C.3     
  28 C28            2.6618    -3.9032    -1.3440 C.3     
  29 C29            3.2144    -2.5515    -0.8466 C.3     
  30 C30            3.7478    -2.8591     0.5747 C.3     
  31 C31            2.6974    -3.8551     1.1258 C.3     
  32 O32           -7.0345     5.1792     0.0409 O.3     
  33 N33           -8.2418     3.6399     2.0797 N.3     
  34 C34           -9.5597     4.2807     1.9774 C.3     
  35 C35           -8.2221     2.6464     3.1616 C.3     
  36 H36           -3.4778    -4.5823     0.0219 H       
  37 H37            2.0469    -7.6943    -0.1004 H       
  38 H38           -1.6638    -9.5567    -0.0407 H       
  39 H39           -2.8415    -7.3964    -0.0042 H       
  40 H40           -0.4024    -0.2897     0.0670 H       
  41 H41           -3.6829     3.0964     0.0140 H       
  42 H42           -1.5055     1.8876     0.1908 H       
  43 H43           -5.3372     3.7080    -1.1713 H       
  44 H44           -5.6904     2.4430    -2.3724 H       
  45 H45           -7.4204     4.2279    -2.4016 H       
  46 H46           -8.1110     2.6641    -1.9033 H       
  47 H47           -8.9177     4.4585    -0.4152 H       
  48 H48           -8.5379     2.2230     0.5561 H       
  49 H49           -6.3948     1.7150     1.6864 H       
  50 H50           -5.7434     3.2883     1.1688 H       
  51 H51            2.9248    -5.6474    -0.0817 H       
  52 H52            3.4137    -4.4159    -1.9439 H       
  53 H53            1.7589    -3.7433    -1.9332 H       
  54 H54            4.0235    -2.2093    -1.4919 H       
  55 H55            2.4193    -1.8072    -0.8028 H       
  56 H56            4.7324    -3.3240     0.5255 H       
  57 H57            3.7768    -1.9536     1.1808 H       
  58 H58            1.8188    -3.3213     1.4881 H       
  59 H59            3.1291    -4.4643     1.9199 H       
  60 H60           -7.0107     5.8867    -0.6178 H       
  61 H61          -10.3057     3.5353     1.7016 H       
  62 H62           -9.8248     4.7219     2.9382 H       
  63 H63           -9.5265     5.0603     1.2163 H       
  64 H64           -7.1992     2.3067     3.3243 H       
  65 H65           -8.6048     3.0981     4.0768 H       
  66 H66           -8.8475     1.7972     2.8864 H       
@<TRIPOS>BOND
   1    1    2 ar
   2    1    6 ar
   3    2    3 ar
   4    2   14 1
   5    3    4 ar
   6    4    5 ar
   7    4    7 1
   8    5    6 ar
   9    5    9 1
  10    6   36 1
  11    7    8 1
  12    7   27 1
  13    8    9 ar
  14    8   10 ar
  15    9   13 ar
  16   10   11 ar
  17   10   37 1
  18   11   12 ar
  19   12   13 ar
  20   12   38 1
  21   13   39 1
  22   14   15 1
  23   14   40 1
  24   15   16 ar
  25   15   20 ar
  26   16   17 ar
  27   17   18 ar
  28   18   19 ar
  29   18   21 1
  30   19   20 ar
  31   19   41 1
  32   20   42 1
  33   21   22 1
  34   21   26 1
  35   22   23 1
  36   22   43 1
  37   22   44 1
  38   23   24 1
  39   23   45 1
  40   23   46 1
  41   24   25 1
  42   24   32 1
  43   24   47 1
  44   25   26 1
  45   25   33 1
  46   25   48 1
  47   26   49 1
  48   26   50 1
  49   27   28 1
  50   27   31 1
  51   27   51 1
  52   28   29 1
  53   28   52 1
  54   28   53 1
  55   29   30 1
  56   29   54 1
  57   29   55 1
  58   30   31 1
  59   30   56 1
  60   30   57 1
  61   31   58 1
  62   31   59 1
  63   32   60 1
  64   33   34 1
  65   33   35 1
  66   34   61 1
  67   34   62 1
  68   34   63 1
  69   35   64 1
  70   35   65 1
  71   35   66 1

#	End of record

