#	Name: ASD05740082
#	Creating user name:	WinNT
#	Creation time:	15. 06. 2019 21:02

#	Modifying user name:	WinNT
#	Modification time:	15. 06. 2019 21:02

#	Program:	/corina/corina34_cracker 3.40 0067  02.08.2006

@<TRIPOS>MOLECULE
ASD05740082
  50   53    0    0    0
SMALL
NO_CHARGES


@<TRIPOS>ATOM
   1 C1            -0.0111     1.5072     0.1522 C.3     
   2 C2            -2.6860     1.3284    -1.9709 C.ar    
   3 C3             1.2293    -0.6931     0.0570 C.2     
   4 C4             1.2384    -2.0793     0.0119 C.2     
   5 C5             0.0065     0.0012     0.1027 C.2     
   6 C6            -1.1642    -0.7017     0.1023 C.2     
   7 C7            -1.1219    -2.1015     0.0562 C.2     
   8 O8             0.0496    -2.7498     0.0125 O.3     
   9 C9            -2.4864     0.0197     0.1513 C.3     
  10 C10           -3.0137     0.1977    -1.2492 C.ar    
  11 C11           -3.8257    -0.7714    -1.8099 C.ar    
  12 O12           -2.1632    -2.7367     0.0555 O.2     
  13 C13           -3.1726     1.4917    -3.2620 C.ar    
  14 C14           -3.9870     0.5161    -3.8224 C.ar    
  15 C15           -4.3113    -0.6122    -3.0947 C.ar    
  16 N16           -2.8432     2.6342    -3.9949 N.am    
  17 S17           -4.0151     3.4407    -4.8424 S.o2    
  18 O18           -3.3777     4.5598    -5.4429 O.2     
  19 O19           -4.7213     2.4571    -5.5859 O.2     
  20 C20            2.5206    -2.6123    -0.0292 C.2     
  21 C21            3.5222    -1.7233    -0.0192 C.2     
  22 S22            2.8832    -0.0895     0.0527 S.3     
  23 O23            4.8395    -2.0394    -0.0540 O.3     
  24 C24            5.7342    -1.0270    -0.1616 C.2     
  25 N25            7.0206    -1.1638    -0.0960 N.2     
  26 S26            5.3293     0.6152    -0.4110 S.3     
  27 C27            7.0371     1.0480    -0.4046 C.2     
  28 C28            7.7457    -0.0676    -0.2220 C.2     
  29 N29           -5.0872     4.0506    -3.7373 N.am    
  30 C30           -4.8793     5.3877    -3.1759 C.3     
  31 C31           -6.2434     3.2531    -3.3212 C.3     
  32 H32            1.0120     1.8830     0.1452 H       
  33 H33           -0.5459     1.8931    -0.7157 H       
  34 H34           -0.5123     1.8350     1.0630 H       
  35 H35           -2.0559     2.0870    -1.5307 H       
  36 H36           -3.1974    -0.5642     0.7358 H       
  37 H37           -2.3503     0.9966     0.6152 H       
  38 H38           -4.0807    -1.6546    -1.2431 H       
  39 H39           -4.3664     0.6396    -4.8260 H       
  40 H40           -4.9445    -1.3712    -3.5298 H       
  41 H41           -1.9279     2.9551    -4.0074 H       
  42 H42            2.6986    -3.6768    -0.0667 H       
  43 H43            7.4401     2.0421    -0.5299 H       
  44 H44            8.8248    -0.0734    -0.1791 H       
  45 H45           -5.3830     6.1261    -3.7998 H       
  46 H46           -5.2883     5.4255    -2.1663 H       
  47 H47           -3.8120     5.6065    -3.1440 H       
  48 H48           -6.2303     2.2952    -3.8412 H       
  49 H49           -6.1993     3.0830    -2.2454 H       
  50 H50           -7.1610     3.7875    -3.5672 H       
@<TRIPOS>BOND
   1    1    5 1
   2    1   32 1
   3    1   33 1
   4    1   34 1
   5    2   10 ar
   6    2   13 ar
   7    2   35 1
   8    3    4 2
   9    3    5 1
  10    3   22 1
  11    4   20 1
  12    4    8 1
  13    5    6 2
  14    6    7 1
  15    6    9 1
  16    7    8 1
  17    7   12 2
  18    9   10 1
  19    9   36 1
  20    9   37 1
  21   10   11 ar
  22   11   15 ar
  23   11   38 1
  24   13   14 ar
  25   13   16 1
  26   14   15 ar
  27   14   39 1
  28   15   40 1
  29   16   17 am
  30   16   41 1
  31   17   18 2
  32   17   19 2
  33   17   29 am
  34   20   21 2
  35   20   42 1
  36   21   22 1
  37   21   23 1
  38   23   24 1
  39   24   25 2
  40   24   26 1
  41   25   28 1
  42   26   27 1
  43   27   28 2
  44   27   43 1
  45   28   44 1
  46   29   30 1
  47   29   31 1
  48   30   45 1
  49   30   46 1
  50   30   47 1
  51   31   48 1
  52   31   49 1
  53   31   50 1

#	End of record

