#	Name: ASD03090805
#	Creating user name:	WinNT
#	Creation time:	15. 06. 2019 20:29

#	Modifying user name:	WinNT
#	Modification time:	15. 06. 2019 20:29

#	Program:	/corina/corina34_cracker 3.40 0067  02.08.2006

@<TRIPOS>MOLECULE
ASD03090805
  39   40    0    0    0
SMALL
NO_CHARGES


@<TRIPOS>ATOM
   1 C1            -0.7514     2.9458    -1.3422 C.ar    
   2 N2            -0.4974     1.7890    -1.9229 N.ar    
   3 C3            -1.3697     0.8001    -1.9221 C.ar    
   4 C4            -2.5977     0.9380    -1.3063 C.ar    
   5 C5            -2.9099     2.1474    -0.6780 C.ar    
   6 C6            -1.9553     3.1669    -0.6978 C.ar    
   7 C7            -4.2173     2.3406    -0.0038 C.2     
   8 N8            -4.4970     3.5053     0.5918 N.2     
   9 C9            -5.7004     3.7136     1.1084 C.2     
  10 N10           -5.8270     4.0864     2.4169 N.pl3   
  11 C11           -7.0827     4.4299     2.9277 C.ar    
  12 C12           -7.4673     3.9837     4.1857 C.ar    
  13 C13           -9.5706     5.1096     3.9439 C.ar    
  14 C14           -7.9436     5.2218     2.1806 C.ar    
  15 C15           -8.7094     4.3241     4.6908 C.ar    
  16 S16           -7.1362     3.5096     0.1076 S.3     
  17 O17           -5.0358     1.4387     0.0074 O.2     
  18 C18           -1.0216    -0.4984    -2.6032 C.3     
  19 Cl19           0.4434     4.2046    -1.3810 Cl      
  20 C20           -9.1877     5.5614     2.6894 C.ar    
  21 O21          -10.0340     6.3324     1.9572 O.3     
  22 F22           -9.0825     3.8891     5.9143 F       
  23 C23          -11.3018     6.6388     2.5411 C.3     
  24 C24           -7.2003     1.7031     0.0145 C.3     
  25 H25           -3.3071     0.1237    -1.3102 H       
  26 H26           -2.1572     4.1162    -0.2241 H       
  27 H27           -5.0459     4.1129     2.9914 H       
  28 H28           -6.7966     3.3705     4.7693 H       
  29 H29          -10.5399     5.3743     4.3400 H       
  30 H30           -7.6445     5.5734     1.2042 H       
  31 H31           -0.5368    -1.1645    -1.8895 H       
  32 H32           -1.9314    -0.9675    -2.9778 H       
  33 H33           -0.3449    -0.3024    -3.4349 H       
  34 H34          -11.8778     7.2588     1.8542 H       
  35 H35          -11.8442     5.7140     2.7379 H       
  36 H36          -11.1503     7.1773     3.4766 H       
  37 H37           -6.8526     1.3773    -0.9658 H       
  38 H38           -6.5606     1.2765     0.7871 H       
  39 H39           -8.2262     1.3677     0.1661 H       
@<TRIPOS>BOND
   1    1    2 ar
   2    1   19 1
   3    1    6 ar
   4    2    3 ar
   5    3    4 ar
   6    3   18 1
   7    4    5 ar
   8    4   25 1
   9    5    6 ar
  10    5    7 1
  11    6   26 1
  12    7    8 1
  13    7   17 2
  14    8    9 2
  15    9   10 1
  16    9   16 1
  17   10   11 1
  18   10   27 1
  19   11   12 ar
  20   11   14 ar
  21   12   15 ar
  22   12   28 1
  23   13   20 ar
  24   13   15 ar
  25   13   29 1
  26   14   20 ar
  27   14   30 1
  28   15   22 1
  29   16   24 1
  30   18   31 1
  31   18   32 1
  32   18   33 1
  33   20   21 1
  34   21   23 1
  35   23   34 1
  36   23   35 1
  37   23   36 1
  38   24   37 1
  39   24   38 1
  40   24   39 1

#	End of record

