#	Name: ASD07730022
#	Creating user name:	WinNT
#	Creation time:	15. 06. 2019 21:11

#	Modifying user name:	WinNT
#	Modification time:	15. 06. 2019 21:11

#	Program:	/corina/corina34_cracker 3.40 0067  02.08.2006

@<TRIPOS>MOLECULE
ASD07730022
  29   31    0    0    0
SMALL
NO_CHARGES


@<TRIPOS>ATOM
   1 N1            -0.0034     1.2576     0.5078 N.ar    
   2 C2             0.0057    -0.0236     0.1474 C.ar    
   3 N3             1.1611    -0.6396    -0.0797 N.ar    
   4 C4             2.3013     0.0255     0.0539 C.ar    
   5 N5             2.2851     1.3047     0.4142 N.ar    
   6 C6             1.1345     1.9157     0.6396 C.ar    
   7 N7            -1.1839    -0.7120     0.0100 N.pl3   
   8 N8             3.5130    -0.6158    -0.1824 N.pl3   
   9 C9             4.7517    -0.0447    -0.0797 C.2     
  10 C10            5.6724    -0.9798    -0.3849 C.2     
  11 C11            4.9823    -2.1722    -0.6875 C.2     
  12 C12            3.6651    -1.9244    -0.5505 C.2     
  13 C13           -2.4020    -0.0347     0.1313 C.ar    
  14 C14           -3.5122    -0.6865     0.6558 C.ar    
  15 C15           -4.7135    -0.0141     0.7745 C.ar    
  16 C16           -4.8116     1.3054     0.3717 C.ar    
  17 C17           -3.7090     1.9560    -0.1502 C.ar    
  18 C18           -2.5033     1.2915    -0.2664 C.ar    
  19 Cl19          -3.3898    -2.3430     1.1603 Cl      
  20 H20            1.1248     2.9553     0.9321 H       
  21 H21           -1.1747    -1.6650    -0.1706 H       
  22 H22            4.9563     0.9788     0.1977 H       
  23 H23            6.7434    -0.8415    -0.3963 H       
  24 H24            5.4286    -3.1134    -0.9727 H       
  25 H25            2.8672    -2.6353    -0.7066 H       
  26 H26           -5.5767    -0.5194     1.1818 H       
  27 H27           -5.7517     1.8287     0.4648 H       
  28 H28           -3.7892     2.9864    -0.4637 H       
  29 H29           -1.6414     1.8020    -0.6701 H       
@<TRIPOS>BOND
   1    1    2 ar
   2    1    6 ar
   3    2    3 ar
   4    2    7 1
   5    3    4 ar
   6    4    5 ar
   7    4    8 1
   8    5    6 ar
   9    6   20 1
  10    7   13 1
  11    7   21 1
  12    8    9 1
  13    8   12 1
  14    9   10 2
  15    9   22 1
  16   10   11 1
  17   10   23 1
  18   11   12 2
  19   11   24 1
  20   12   25 1
  21   13   14 ar
  22   13   18 ar
  23   14   15 ar
  24   14   19 1
  25   15   16 ar
  26   15   26 1
  27   16   17 ar
  28   16   27 1
  29   17   18 ar
  30   17   28 1
  31   18   29 1

#	End of record

