#	Name: ASD03091670
#	Creating user name:	WinNT
#	Creation time:	15. 06. 2019 20:31

#	Modifying user name:	WinNT
#	Modification time:	15. 06. 2019 20:31

#	Program:	/corina/corina34_cracker 3.40 0067  02.08.2006

@<TRIPOS>MOLECULE
ASD03091670
  44   46    0    0    0
SMALL
NO_CHARGES


@<TRIPOS>ATOM
   1 Cl1            0.0000     0.0000     0.0000 Cl      
   2 H2             0.0000     1.3700     0.0000 H       
   3 C3            14.5238    11.5213     6.5733 C.ar    
   4 C4            14.5428    10.1225     6.5656 C.ar    
   5 C5            15.7694     9.4408     6.5503 C.ar    
   6 C6            16.9527    10.1476     6.5428 C.ar    
   7 C7            16.9350    11.5370     6.5504 C.ar    
   8 C8            15.7585    12.2167     6.5653 C.ar    
   9 S9            12.8929     9.5102     6.5780 S.3     
  10 C10           12.2364    11.1376     6.5931 C.2     
  11 C11           13.2204    12.0429     6.5942 C.2     
  12 C12           10.8023    11.4608     6.6078 C.2     
  13 O13           10.4407    12.6223     6.6171 O.2     
  14 N14            9.8883    10.4704     6.6110 N.am    
  15 N15            6.9509    10.0482     8.4051 N.3     
  16 C16            7.9994    11.0206     8.0684 C.3     
  17 C17            8.4592    10.7925     6.6256 C.3     
  18 C18            7.6628     9.6242     6.0311 C.3     
  19 C19            6.1698     9.9718     6.0858 C.3     
  20 C20            5.7733    10.2220     7.5435 C.3     
  21 C21            7.4616     8.6727     8.3266 C.3     
  22 C22            7.9068     8.3779     6.8914 C.3     
  23 O23           15.7906     8.0815     6.5432 O.3     
  24 C24           17.0737     7.4527     6.5276 C.3     
  25 H25           17.8953     9.6206     6.5313 H       
  26 H26           17.8669    12.0829     6.5448 H       
  27 H27           15.7644    13.2967     6.5710 H       
  28 H28           13.0253    13.1051     6.6026 H       
  29 H29           10.1766     9.5443     6.6035 H       
  30 H30            7.6037    12.0313     8.1685 H       
  31 H31            8.8449    10.8922     8.7442 H       
  32 H32            8.2798    11.6931     6.0384 H       
  33 H33            7.9692     9.4479     5.0000 H       
  34 H34            5.9821    10.8697     5.4970 H       
  35 H35            5.5868     9.1421     5.6859 H       
  36 H36            5.0000     9.5121     7.8370 H       
  37 H37            5.3931    11.2382     7.6477 H       
  38 H38            8.3107     8.5609     9.0009 H       
  39 H39            6.6745     7.9755     8.6136 H       
  40 H40            7.3308     7.5418     6.4948 H       
  41 H41            8.9682     8.1296     6.8820 H       
  42 H42           16.9477     6.3700     6.5234 H       
  43 H43           17.6174     7.7587     5.6338 H       
  44 H44           17.6347     7.7497     7.4137 H       
@<TRIPOS>BOND
   1    1    2 1
   2    3    4 ar
   3    3    8 ar
   4    3   11 1
   5    4    5 ar
   6    4    9 1
   7    5    6 ar
   8    5   23 1
   9    6    7 ar
  10    6   25 1
  11    7    8 ar
  12    7   26 1
  13    8   27 1
  14    9   10 1
  15   10   11 2
  16   10   12 1
  17   11   28 1
  18   12   13 2
  19   12   14 am
  20   14   17 1
  21   14   29 1
  22   15   16 1
  23   15   20 1
  24   15   21 1
  25   16   17 1
  26   16   30 1
  27   16   31 1
  28   17   18 1
  29   17   32 1
  30   18   19 1
  31   18   22 1
  32   18   33 1
  33   19   20 1
  34   19   34 1
  35   19   35 1
  36   20   36 1
  37   20   37 1
  38   21   22 1
  39   21   38 1
  40   21   39 1
  41   22   40 1
  42   22   41 1
  43   23   24 1
  44   24   42 1
  45   24   43 1
  46   24   44 1

#	End of record

