#	Name: ASD01420183
#	Creating user name:	WinNT
#	Creation time:	15. 06. 2019 19:20

#	Modifying user name:	WinNT
#	Modification time:	15. 06. 2019 19:20

#	Program:	/corina/corina34_cracker 3.40 0067  02.08.2006

@<TRIPOS>MOLECULE
ASD01420183
  42   44    0    0    0
SMALL
NO_CHARGES


@<TRIPOS>ATOM
   1 C1            -0.0144     1.2120     0.0087 C.2     
   2 O2             0.0255     0.2228    -0.6977 O.2     
   3 C3             1.1672     2.0842     0.1223 C.ar    
   4 C4             2.4448     1.5235     0.2728 C.ar    
   5 C5             3.5498     2.3502     0.3784 C.ar    
   6 C6             3.3927     3.7279     0.3353 C.ar    
   7 C7             2.1266     4.2853     0.1860 C.ar    
   8 C8             1.0210     3.4739     0.0748 C.ar    
   9 C9             1.9662     5.7830     0.1408 C.3     
  10 C10            1.3353     6.1883    -1.1929 C.3     
  11 C11            1.0629     6.2342     1.2903 C.3     
  12 O12            4.4785     4.5354     0.4395 O.3     
  13 O13            2.5963     0.1761     0.3152 O.3     
  14 C14           -2.4288     0.8174     0.5881 C.3     
  15 N15           -1.1417     1.5132     0.6833 N.am    
  16 C16           -1.3152     2.5989     1.6534 C.3     
  17 C17           -2.7390     2.5489     2.1479 C.ar    
  18 C18           -3.4142     3.3409     3.0616 C.ar    
  19 C19           -4.7413     3.0894     3.3512 C.ar    
  20 C20           -5.3992     2.0397     2.7242 C.ar    
  21 C21           -4.7212     1.2486     1.8102 C.ar    
  22 C22           -3.3918     1.5044     1.5233 C.ar    
  23 O23           -6.7049     1.7882     3.0064 O.3     
  24 Cl24          -5.5847     4.0836     4.4974 Cl      
  25 H25            4.5347     1.9226     0.4947 H       
  26 H26            0.0405     3.9102    -0.0454 H       
  27 H27            2.9432     6.2562     0.2393 H       
  28 H28            0.3583     5.7152    -1.2913 H       
  29 H29            1.2193     7.2717    -1.2256 H       
  30 H30            1.9789     5.8669    -2.0118 H       
  31 H31            0.0859     5.7610     1.1918 H       
  32 H32            1.5123     5.9454     2.2404 H       
  33 H33            0.9468     7.3175     1.2576 H       
  34 H34            4.8897     4.7530    -0.4082 H       
  35 H35            2.7363    -0.2314    -0.5505 H       
  36 H36           -2.8037     0.8722    -0.4339 H       
  37 H37           -2.3079    -0.2251     0.8828 H       
  38 H38           -0.6289     2.4610     2.4889 H       
  39 H39           -1.1248     3.5582     1.1722 H       
  40 H40           -2.9018     4.1571     3.5493 H       
  41 H41           -5.2309     0.4314     1.3216 H       
  42 H42           -7.3282     2.2588     2.4361 H       
@<TRIPOS>BOND
   1    1    2 2
   2    1    3 1
   3    1   15 am
   4    3    4 ar
   5    3    8 ar
   6    4    5 ar
   7    4   13 1
   8    5    6 ar
   9    5   25 1
  10    6    7 ar
  11    6   12 1
  12    7    8 ar
  13    7    9 1
  14    8   26 1
  15    9   10 1
  16    9   11 1
  17    9   27 1
  18   10   28 1
  19   10   29 1
  20   10   30 1
  21   11   31 1
  22   11   32 1
  23   11   33 1
  24   12   34 1
  25   13   35 1
  26   14   15 1
  27   14   22 1
  28   14   36 1
  29   14   37 1
  30   15   16 1
  31   16   17 1
  32   16   38 1
  33   16   39 1
  34   17   18 ar
  35   17   22 ar
  36   18   19 ar
  37   18   40 1
  38   19   20 ar
  39   19   24 1
  40   20   21 ar
  41   20   23 1
  42   21   22 ar
  43   21   41 1
  44   23   42 1

#	End of record

