#	Name: ASD03180090
#	Creating user name:	WinNT
#	Creation time:	15. 06. 2019 20:33

#	Modifying user name:	WinNT
#	Modification time:	15. 06. 2019 20:33

#	Program:	/corina/corina34_cracker 3.40 0067  02.08.2006

@<TRIPOS>MOLECULE
ASD03180090
  38   40    0    0    0
SMALL
NO_CHARGES


@<TRIPOS>ATOM
   1 C1            -0.0146     1.3827    -0.0386 C.ar    
   2 C2            -1.2364    -0.5833    -0.6656 C.ar    
   3 C3            -2.3859    -0.0410    -0.1201 C.ar    
   4 C4            -2.3551     1.2154     0.4565 C.ar    
   5 C5            -1.1720     1.9265     0.5036 C.ar    
   6 C6            -0.0514     0.1244    -0.6267 C.ar    
   7 C7            -1.1367     3.2908     1.1428 C.3     
   8 N8             1.1830     2.1019     0.0021 N.pl3   
   9 C9             2.3922     1.4302     0.0915 C.2     
  10 N10            3.5630     1.9818     0.0070 N.2     
  11 S11            2.5759    -0.3025     0.3451 S.3     
  12 C12            4.3285    -0.1262     0.3067 C.2     
  13 C13            4.6183     1.1750     0.1173 C.2     
  14 C14            6.0077     1.6735     0.0392 C.2     
  15 O15            7.1348     0.9352     0.1384 O.3     
  16 C16            8.1796     1.7668     0.0138 C.2     
  17 N17            7.7382     2.9809    -0.1571 N.2     
  18 C18            6.3962     2.9605    -0.1519 C.2     
  19 C19            5.4865     4.1496    -0.3236 C.3     
  20 C20            9.6304     1.3624     0.0640 C.3     
  21 C21           -1.3135     4.3633     0.0661 C.3     
  22 H22           -1.2638    -1.5650    -1.1149 H       
  23 H23           -3.3114    -0.5967    -0.1519 H       
  24 H24           -3.2545     1.6361     0.8813 H       
  25 H25            0.8457    -0.2995    -1.0532 H       
  26 H26           -1.9431     3.3714     1.8718 H       
  27 H27           -0.1789     3.4329     1.6434 H       
  28 H28            1.1680     3.0712    -0.0323 H       
  29 H29            5.0472    -0.9245     0.4190 H       
  30 H30            5.2711     4.5861     0.6518 H       
  31 H31            5.9747     4.8926    -0.9543 H       
  32 H32            4.5557     3.8303    -0.7923 H       
  33 H33            9.9748     1.1194    -0.9412 H       
  34 H34           10.2235     2.1857     0.4621 H       
  35 H35            9.7423     0.4897     0.7073 H       
  36 H36           -0.5072     4.2827    -0.6629 H       
  37 H37           -2.2713     4.2212    -0.4345 H       
  38 H38           -1.2881     5.3500     0.5285 H       
@<TRIPOS>BOND
   1    1    6 ar
   2    1    8 1
   3    1    5 ar
   4    2    3 ar
   5    2    6 ar
   6    2   22 1
   7    3    4 ar
   8    3   23 1
   9    4    5 ar
  10    4   24 1
  11    5    7 1
  12    6   25 1
  13    7   21 1
  14    7   26 1
  15    7   27 1
  16    8    9 1
  17    8   28 1
  18    9   11 1
  19    9   10 2
  20   10   13 1
  21   11   12 1
  22   12   13 2
  23   12   29 1
  24   13   14 1
  25   14   15 1
  26   14   18 2
  27   15   16 1
  28   16   17 2
  29   16   20 1
  30   17   18 1
  31   18   19 1
  32   19   30 1
  33   19   31 1
  34   19   32 1
  35   20   33 1
  36   20   34 1
  37   20   35 1
  38   21   36 1
  39   21   37 1
  40   21   38 1

#	End of record

