#	Name: ASD05430490
#	Creating user name:	WinNT
#	Creation time:	15. 06. 2019 21:00

#	Modifying user name:	WinNT
#	Modification time:	15. 06. 2019 21:00

#	Program:	/corina/corina34_cracker 3.40 0067  02.08.2006

@<TRIPOS>MOLECULE
ASD05430490
  51   54    0    0    0
SMALL
NO_CHARGES


@<TRIPOS>ATOM
   1 C1            -0.0168     1.3911     0.0097 C.ar    
   2 C2             0.0021    -0.0041     0.0020 C.ar    
   3 C3            -1.1897    -0.7190     0.0100 C.ar    
   4 C4            -2.3954    -0.0542     0.0251 C.ar    
   5 C5            -2.4227     1.3458     0.0329 C.ar    
   6 C6            -1.2220     2.0655     0.0306 C.ar    
   7 C7            -4.8671     1.3600     0.0555 C.2     
   8 C8            -3.7079     2.0574     0.0485 C.2     
   9 C9            -6.1051     2.0455     0.0705 C.2     
  10 O10            1.1512     2.0867     0.0023 O.3     
  11 C11            1.0572     3.5126     0.0108 C.3     
  12 C12            1.6004    -1.7059     0.8211 C.2     
  13 N13            1.2247    -0.6855    -0.0142 N.pl3   
  14 C14            2.8460    -2.0675     0.4592 C.2     
  15 N15            3.2254    -1.2928    -0.5680 N.2     
  16 C16            2.2633    -0.4611    -0.8610 C.2     
  17 C17            3.6711    -3.1547     1.0980 C.3     
  18 N18           -6.2194     3.3606     0.0730 N.2     
  19 N19           -7.3241     1.4219     0.0784 N.pl3   
  20 C20           -8.3282     2.5014     0.0935 C.3     
  21 C21           -7.4862     3.7617     0.0882 C.2     
  22 C22           -9.1936     2.4396    -1.1387 C.ar    
  23 C23           -9.1836     2.4251     1.3597 C.3     
  24 O24           -7.8887     4.9088     0.0970 O.2     
  25 C25          -10.2026     3.3668    -1.3214 C.ar    
  26 C26           -8.9741     1.4591    -2.0883 C.ar    
  27 C27           -9.7665     1.4019    -3.2192 C.ar    
  28 C28          -10.7808     2.3268    -3.4006 C.ar    
  29 C29          -10.9965     3.3113    -2.4512 C.ar    
  30 F30          -11.5560     2.2719    -4.5057 F       
  31 H31           -1.1701    -1.7988     0.0040 H       
  32 H32           -3.3199    -0.6125     0.0306 H       
  33 H33           -1.2380     3.1453     0.0369 H       
  34 H34           -4.8478     0.2802     0.0495 H       
  35 H35           -3.7272     3.1372     0.0545 H       
  36 H36            0.5121     3.8461    -0.8722 H       
  37 H37            0.5291     3.8365     0.9076 H       
  38 H38            2.0587     3.9428     0.0036 H       
  39 H39            1.0121    -2.1342     1.6191 H       
  40 H40            2.2886     0.2814    -1.6450 H       
  41 H41            3.4797    -4.1010     0.5919 H       
  42 H42            4.7288    -2.9051     1.0137 H       
  43 H43            3.4017    -3.2445     2.1504 H       
  44 H44           -7.4924     0.4666     0.0745 H       
  45 H45           -8.5428     2.5133     2.2370 H       
  46 H46           -9.9100     3.2378     1.3571 H       
  47 H47           -9.7076     1.4696     1.3872 H       
  48 H48          -10.3707     4.1345    -0.5807 H       
  49 H49           -8.1829     0.7378    -1.9466 H       
  50 H50           -9.5944     0.6364    -3.9612 H       
  51 H51          -11.7876     4.0330    -2.5915 H       
@<TRIPOS>BOND
   1    1    2 ar
   2    1   10 1
   3    1    6 ar
   4    2    3 ar
   5    2   13 1
   6    3    4 ar
   7    3   31 1
   8    4    5 ar
   9    4   32 1
  10    5    6 ar
  11    5    8 1
  12    6   33 1
  13    7    8 2
  14    7    9 1
  15    7   34 1
  16    8   35 1
  17    9   19 1
  18    9   18 2
  19   10   11 1
  20   11   36 1
  21   11   37 1
  22   11   38 1
  23   12   13 1
  24   12   14 2
  25   12   39 1
  26   13   16 1
  27   14   15 1
  28   14   17 1
  29   15   16 2
  30   16   40 1
  31   17   41 1
  32   17   42 1
  33   17   43 1
  34   18   21 1
  35   19   20 1
  36   19   44 1
  37   20   21 1
  38   20   22 1
  39   20   23 1
  40   21   24 2
  41   22   25 ar
  42   22   26 ar
  43   23   45 1
  44   23   46 1
  45   23   47 1
  46   25   29 ar
  47   25   48 1
  48   26   27 ar
  49   26   49 1
  50   27   28 ar
  51   27   50 1
  52   28   29 ar
  53   28   30 1
  54   29   51 1

#	End of record

