#	Name: ASD01900146
#	Creating user name:	WinNT
#	Creation time:	15. 06. 2019 19:51

#	Modifying user name:	WinNT
#	Modification time:	15. 06. 2019 19:51

#	Program:	/corina/corina34_cracker 3.40 0067  02.08.2006

@<TRIPOS>MOLECULE
ASD01900146
  42   44    0    0    0
SMALL
NO_CHARGES


@<TRIPOS>ATOM
   1 C1            -0.0837     1.2230     0.5376 C.2     
   2 N2             0.0056     0.0102    -0.0434 N.am    
   3 O3             0.8940     1.7190     1.0622 O.2     
   4 C4             1.2466    -0.6298    -0.1399 C.ar    
   5 C5             1.3249    -2.0118    -0.0308 C.ar    
   6 C6             2.5529    -2.6442    -0.1263 C.ar    
   7 C7             3.7076    -1.8920    -0.3319 C.ar    
   8 C8             3.6250    -0.5113    -0.4404 C.ar    
   9 C9             2.3985     0.1174    -0.3505 C.ar    
  10 N10            4.9522    -2.5299    -0.4286 N.am    
  11 C11            6.0800    -1.8558    -0.1284 C.2     
  12 O12            2.6320    -3.9974    -0.0193 O.3     
  13 C13            1.4080    -4.7042     0.1913 C.3     
  14 C14            7.3980    -2.4865    -0.3472 C.ar    
  15 O15            6.0128    -0.7286     0.3225 O.2     
  16 C16            8.5692    -1.7907    -0.0372 C.ar    
  17 C17            9.7978    -2.3874    -0.2442 C.ar    
  18 C18            9.8692    -3.6697    -0.7567 C.ar    
  19 C19            8.7123    -4.3639    -1.0663 C.ar    
  20 C20            7.4789    -3.7830    -0.8595 C.ar    
  21 Cl21           8.4808    -0.1806     0.6058 Cl      
  22 C22           -1.3719     1.9539     0.5316 C.ar    
  23 C23           -1.4667     3.2090     1.1322 C.ar    
  24 N24           -2.6162     3.8592     1.1194 N.ar    
  25 C25           -3.6745     3.3218     0.5387 C.ar    
  26 C26           -3.5836     2.0736    -0.0596 C.ar    
  27 N27           -2.4404     1.4177    -0.0515 N.ar    
  28 H28           -0.7901    -0.4191    -0.3947 H       
  29 H29            0.4287    -2.5930     0.1289 H       
  30 H30            4.5199     0.0720    -0.5998 H       
  31 H31            2.3359     1.1923    -0.4356 H       
  32 H32            5.0017    -3.4564    -0.7115 H       
  33 H33            0.7314    -4.5154    -0.6422 H       
  34 H34            1.6124    -5.7727     0.2585 H       
  35 H35            0.9466    -4.3635     1.1182 H       
  36 H36           10.7044    -1.8512    -0.0055 H       
  37 H37           10.8322    -4.1316    -0.9167 H       
  38 H38            8.7758    -5.3648    -1.4669 H       
  39 H39            6.5774    -4.3263    -1.1016 H       
  40 H40           -0.6019     3.6483     1.6072 H       
  41 H41           -4.6132     3.8558     0.5303 H       
  42 H42           -4.4514     1.6382    -0.5327 H       
@<TRIPOS>BOND
   1    1    2 am
   2    1    3 2
   3    1   22 1
   4    2    4 1
   5    2   28 1
   6    4    5 ar
   7    4    9 ar
   8    5    6 ar
   9    5   29 1
  10    6    7 ar
  11    6   12 1
  12    7    8 ar
  13    7   10 1
  14    8    9 ar
  15    8   30 1
  16    9   31 1
  17   10   11 am
  18   10   32 1
  19   11   14 1
  20   11   15 2
  21   12   13 1
  22   13   33 1
  23   13   34 1
  24   13   35 1
  25   14   16 ar
  26   14   20 ar
  27   16   17 ar
  28   16   21 1
  29   17   18 ar
  30   17   36 1
  31   18   19 ar
  32   18   37 1
  33   19   20 ar
  34   19   38 1
  35   20   39 1
  36   22   23 ar
  37   22   27 ar
  38   23   24 ar
  39   23   40 1
  40   24   25 ar
  41   25   26 ar
  42   25   41 1
  43   26   27 ar
  44   26   42 1

#	End of record

