#	Name: ASD01912903
#	Creating user name:	WinNT
#	Creation time:	15. 06. 2019 20:00

#	Modifying user name:	WinNT
#	Modification time:	15. 06. 2019 20:00

#	Program:	/corina/corina34_cracker 3.40 0067  02.08.2006

@<TRIPOS>MOLECULE
ASD01912903
  39   42    0    0    0
SMALL
NO_CHARGES


@<TRIPOS>ATOM
   1 C1            -0.0075     1.4040     0.0747 C.2     
   2 N2             0.0227     0.0352     0.0012 N.pl3   
   3 C3            -1.1754    -0.6605    -0.0550 C.2     
   4 C4            -2.3417    -0.0276    -0.0389 C.2     
   5 N5            -2.4261     1.3496     0.0343 N.am    
   6 C6            -1.2987     2.0928     0.0973 C.2     
   7 C7             1.3070     1.8302     0.1182 C.2     
   8 C8             2.0702     0.6650     0.0671 C.2     
   9 N9             1.2482    -0.3554    -0.0008 N.2     
  10 O10           -1.3559     3.3078     0.1625 O.2     
  11 C11           -3.6754     1.9730     0.0486 C.2     
  12 C12            3.5753     0.5903     0.0864 C.3     
  13 O13            4.1167     1.9104     0.1661 O.3     
  14 C14            5.4709     2.0212     0.1932 C.ar    
  15 C15            6.0642     3.2729     0.2700 C.ar    
  16 C16            7.4410     3.3828     0.2973 C.ar    
  17 C17            8.2276     2.2467     0.2480 C.ar    
  18 C18            7.6387     0.9981     0.1710 C.ar    
  19 C19            6.2622     0.8825     0.1496 C.ar    
  20 N20           -4.4393     2.2500     1.1532 N.pl3   
  21 C21           -5.5719     2.8593     0.7124 C.2     
  22 N22           -5.5167     2.9558    -0.5875 N.2     
  23 C23           -4.3650     2.4267    -1.0254 C.2     
  24 C24           -4.0994     1.9463     2.5455 C.3     
  25 H25           -1.1591    -1.7388    -0.1134 H       
  26 H26           -3.2523    -0.6064    -0.0847 H       
  27 H27            1.6655     2.8472     0.1784 H       
  28 H28            3.8992     0.0118     0.9515 H       
  29 H29            3.9268     0.1079    -0.8256 H       
  30 H30            5.4503     4.1606     0.3081 H       
  31 H31            7.9034     4.3570     0.3567 H       
  32 H32            9.3038     2.3348     0.2695 H       
  33 H33            8.2552     0.1123     0.1319 H       
  34 H34            5.8027    -0.0930     0.0895 H       
  35 H35           -6.3833     3.2058     1.3353 H       
  36 H36           -4.0457     2.3672    -2.0554 H       
  37 H37           -3.4733     2.7423     2.9486 H       
  38 H38           -5.0135     1.8695     3.1342 H       
  39 H39           -3.5584     1.0010     2.5894 H       
@<TRIPOS>BOND
   1    1    2 1
   2    1    7 2
   3    1    6 1
   4    2    3 1
   5    2    9 1
   6    3    4 2
   7    3   25 1
   8    4    5 1
   9    4   26 1
  10    5    6 am
  11    5   11 1
  12    6   10 2
  13    7    8 1
  14    7   27 1
  15    8    9 2
  16    8   12 1
  17   11   20 1
  18   11   23 2
  19   12   13 1
  20   12   28 1
  21   12   29 1
  22   13   14 1
  23   14   15 ar
  24   14   19 ar
  25   15   16 ar
  26   15   30 1
  27   16   17 ar
  28   16   31 1
  29   17   18 ar
  30   17   32 1
  31   18   19 ar
  32   18   33 1
  33   19   34 1
  34   20   21 1
  35   20   24 1
  36   21   22 2
  37   21   35 1
  38   22   23 1
  39   23   36 1
  40   24   37 1
  41   24   38 1
  42   24   39 1

#	End of record

