#	Name: ASD01028552
#	Creating user name:	WinNT
#	Creation time:	15. 06. 2019 18:57

#	Modifying user name:	WinNT
#	Modification time:	15. 06. 2019 18:57

#	Program:	/corina/corina34_cracker 3.40 0067  02.08.2006

@<TRIPOS>MOLECULE
ASD01028552
  55   60    0    0    0
SMALL
NO_CHARGES


@<TRIPOS>ATOM
   1 N1            -0.0169     1.3922     0.0097 N.2     
   2 N2             0.0021    -0.0041     0.0020 N.pl3   
   3 C3             1.1101     2.0751     0.0026 C.2     
   4 C4             2.3573     1.4096    -0.0133 C.2     
   5 C5             2.4044     0.0526    -0.0211 C.2     
   6 C6             1.1994    -0.6772    -0.0130 C.2     
   7 N7             0.9127    -1.9690    -0.0175 N.2     
   8 N8            -0.3657    -2.1204    -0.0059 N.2     
   9 C9            -0.9593    -0.9525     0.0061 C.2     
  10 C10           -2.4468    -0.7111     0.0226 C.3     
  11 C11            1.0698     3.5504     0.0109 C.2     
  12 N12           -2.9147    -0.6403     1.4090 N.pl3   
  13 C13           -4.2584    -0.4232     1.6775 C.ar    
  14 C14           -5.1753    -0.2704     0.6507 C.ar    
  15 C15           -6.5142    -0.0541     0.9484 C.ar    
  16 N16           -6.9442     0.0116     2.1871 N.ar    
  17 C17           -6.1141    -0.1272     3.2261 C.ar    
  18 C18           -4.7349    -0.3568     3.0101 C.ar    
  19 C19           -6.5893    -0.0550     4.5488 C.ar    
  20 C20           -5.6886    -0.2055     5.5701 C.ar    
  21 C21           -4.3376    -0.4242     5.2805 C.ar    
  22 N22           -3.9056    -0.4967     4.0453 N.ar    
  23 C23            2.1391     4.3737     0.0047 C.2     
  24 N24            1.8369     5.6538     0.0138 N.2     
  25 C25            0.5752     5.9632     0.0274 C.2     
  26 S26           -0.3827     4.5473     0.0230 S.3     
  27 N27            0.0780     7.2537     0.0391 N.3     
  28 C28            1.1693     8.2388     0.0335 C.3     
  29 O29           -6.1064    -0.1421     6.8613 O.3     
  30 C30           -5.1118    -0.3079     7.8739 C.3     
  31 C31           -0.8095     7.4659     1.1917 C.3     
  32 C32           -1.3829     8.8842     1.1331 C.3     
  33 O33           -0.3078     9.8266     1.0968 O.3     
  34 C34            0.5760     9.6493    -0.0135 C.3     
  35 H35            3.2737     1.9812    -0.0197 H       
  36 H36            3.3543    -0.4611    -0.0336 H       
  37 H37           -2.6680     0.2284    -0.4839 H       
  38 H38           -2.9533    -1.5285    -0.4906 H       
  39 H39           -2.2850    -0.7453     2.1394 H       
  40 H40           -4.8500    -0.3190    -0.3780 H       
  41 H41           -7.2203     0.0637     0.1398 H       
  42 H42           -7.6361     0.1148     4.7533 H       
  43 H43           -3.6358    -0.5415     6.0929 H       
  44 H44            3.1567     4.0122    -0.0063 H       
  45 H45            1.7667     8.1252     0.9381 H       
  46 H46            1.7990     8.0794    -0.8418 H       
  47 H47           -5.5781    -0.2355     8.8565 H       
  48 H48           -4.6425    -1.2857     7.7656 H       
  49 H49           -4.3562     0.4711     7.7720 H       
  50 H50           -1.6242     6.7424     1.1619 H       
  51 H51           -0.2437     7.3400     2.1148 H       
  52 H52           -1.9930     8.9934     0.2364 H       
  53 H53           -1.9963     9.0656     2.0156 H       
  54 H54            1.3794    10.3840     0.0398 H       
  55 H55            0.0229     9.7807    -0.9435 H       
@<TRIPOS>BOND
   1    1    2 1
   2    1    3 2
   3    2    6 1
   4    2    9 1
   5    3    4 1
   6    3   11 1
   7    4    5 2
   8    4   35 1
   9    5    6 1
  10    5   36 1
  11    6    7 2
  12    7    8 1
  13    8    9 2
  14    9   10 1
  15   10   12 1
  16   10   37 1
  17   10   38 1
  18   11   23 2
  19   11   26 1
  20   12   13 1
  21   12   39 1
  22   13   14 ar
  23   13   18 ar
  24   14   15 ar
  25   14   40 1
  26   15   16 ar
  27   15   41 1
  28   16   17 ar
  29   17   18 ar
  30   17   19 ar
  31   18   22 ar
  32   19   20 ar
  33   19   42 1
  34   20   21 ar
  35   20   29 1
  36   21   22 ar
  37   21   43 1
  38   23   24 1
  39   23   44 1
  40   24   25 2
  41   25   26 1
  42   25   27 1
  43   27   28 1
  44   27   31 1
  45   28   34 1
  46   28   45 1
  47   28   46 1
  48   29   30 1
  49   30   47 1
  50   30   48 1
  51   30   49 1
  52   31   32 1
  53   31   50 1
  54   31   51 1
  55   32   33 1
  56   32   52 1
  57   32   53 1
  58   33   34 1
  59   34   54 1
  60   34   55 1

#	End of record

