#	Name: ASD01913842
#	Creating user name:	WinNT
#	Creation time:	15. 06. 2019 20:02

#	Modifying user name:	WinNT
#	Modification time:	15. 06. 2019 20:02

#	Program:	/corina/corina34_cracker 3.40 0067  02.08.2006

@<TRIPOS>MOLECULE
ASD01913842
  45   47    0    0    0
SMALL
NO_CHARGES


@<TRIPOS>ATOM
   1 C1            -0.2206     1.4151     0.2183 C.ar    
   2 C2            -0.1404    -0.0130     0.1487 C.1     
   3 C3            -0.0748    -1.1837     0.0916 C.1     
   4 C4             0.0053    -2.6118     0.0220 C.ar    
   5 C5             0.0870    -3.2608    -1.2191 C.ar    
   6 C6             0.1560    -5.3344    -0.0290 C.ar    
   7 N7             0.0837    -4.6927     1.1274 N.ar    
   8 C8             0.0092    -3.3793     1.1888 C.ar    
   9 C9             0.1629    -4.6391    -1.2345 C.ar    
  10 N10            0.2331    -6.7251    -0.0385 N.am    
  11 C11           -0.3017     2.0550     1.4600 C.ar    
  12 C12           -0.3788     3.4333     1.5193 C.ar    
  13 C13           -0.2898     3.5535    -0.8782 C.ar    
  14 C14           -0.2122     2.1767    -0.9532 C.ar    
  15 C15           -0.3763     4.1801     0.3553 C.ar    
  16 C16           -0.8981    -7.4460    -0.0257 C.2     
  17 N17           -0.9003    -8.7874    -0.0228 N.am    
  18 C18            0.3484    -9.5509    -0.0461 C.3     
  19 C19            1.4511    -8.7321     0.6334 C.3     
  20 C20            1.5467    -7.3702    -0.0683 C.3     
  21 O21           -1.9635    -6.8604    -0.0158 O.2     
  22 C22            0.1551   -10.8702     0.7041 C.3     
  23 C23            0.7447    -9.8387    -1.4956 C.3     
  24 C24           -2.1785    -9.5028     0.0047 C.3     
  25 F25           -0.3052     1.3270     2.5981 F       
  26 F26           -0.2815     4.2915    -2.0098 F       
  27 H27            0.0901    -2.6961    -2.1397 H       
  28 H28           -0.0490    -2.8912     2.1504 H       
  29 H29            0.2265    -5.1719    -2.1717 H       
  30 H30           -0.4415     3.9286     2.4769 H       
  31 H31           -0.1453     1.6898    -1.9149 H       
  32 H32           -0.4375     5.2571     0.4077 H       
  33 H33            1.2051    -8.5889     1.6855 H       
  34 H34            2.4029    -9.2559     0.5453 H       
  35 H35            1.8650    -7.5140    -1.1008 H       
  36 H36            2.2693    -6.7420     0.4525 H       
  37 H37           -0.6334   -11.4494     0.2235 H       
  38 H38            1.0853   -11.4380     0.6862 H       
  39 H39           -0.1244   -10.6632     1.7371 H       
  40 H40            0.8847    -8.8978    -2.0277 H       
  41 H41            1.6745   -10.4073    -1.5120 H       
  42 H42           -0.0428   -10.4162    -1.9798 H       
  43 H43           -2.9972    -8.7834     0.0198 H       
  44 H44           -2.2627   -10.1304    -0.8825 H       
  45 H45           -2.2265   -10.1267     0.8971 H       
@<TRIPOS>BOND
   1    1    2 1
   2    1   11 ar
   3    1   14 ar
   4    2    3 3
   5    3    4 1
   6    4    5 ar
   7    4    8 ar
   8    5    9 ar
   9    5   27 1
  10    6    7 ar
  11    6   10 1
  12    6    9 ar
  13    7    8 ar
  14    8   28 1
  15    9   29 1
  16   10   16 am
  17   10   20 1
  18   11   12 ar
  19   11   25 1
  20   12   15 ar
  21   12   30 1
  22   13   14 ar
  23   13   26 1
  24   13   15 ar
  25   14   31 1
  26   15   32 1
  27   16   17 am
  28   16   21 2
  29   17   18 1
  30   17   24 1
  31   18   19 1
  32   18   22 1
  33   18   23 1
  34   19   20 1
  35   19   33 1
  36   19   34 1
  37   20   35 1
  38   20   36 1
  39   22   37 1
  40   22   38 1
  41   22   39 1
  42   23   40 1
  43   23   41 1
  44   23   42 1
  45   24   43 1
  46   24   44 1
  47   24   45 1

#	End of record

