#	Name: ASD01918219
#	Creating user name:	WinNT
#	Creation time:	15. 06. 2019 20:11

#	Modifying user name:	WinNT
#	Modification time:	15. 06. 2019 20:11

#	Program:	/corina/corina34_cracker 3.40 0067  02.08.2006

@<TRIPOS>MOLECULE
ASD01918219
  40   43    0    0    0
SMALL
NO_CHARGES


@<TRIPOS>ATOM
   1 C1             0.0752     1.3609    -0.0284 C.ar    
   2 C2             0.1755    -0.0318    -0.2740 C.ar    
   3 C3             1.4360    -0.6621    -0.1350 C.ar    
   4 N4             2.5063     0.0555     0.2231 N.ar    
   5 C5             2.4280     1.3443     0.4539 C.ar    
   6 C6             1.2300     2.0392     0.3391 C.ar    
   7 C7            -1.2175     2.0704    -0.1653 C.ar    
   8 C8            -2.2210     1.8865     0.7860 C.ar    
   9 C9            -3.4230     2.5503     0.6539 C.ar    
  10 C10           -3.6346     3.3974    -0.4209 C.ar    
  11 C11           -2.6420     3.5832    -1.3685 C.ar    
  12 C12           -1.4339     2.9294    -1.2429 C.ar    
  13 C13           -0.9428    -0.7882    -0.6484 C.ar    
  14 C14           -0.8076    -2.1246    -0.8757 C.ar    
  15 C15            0.4317    -2.7503    -0.7397 C.ar    
  16 C16            1.5395    -2.0422    -0.3776 C.ar    
  17 S17            1.1764     3.7711     0.6587 S.o2    
  18 C18            0.1965     4.0047     2.1043 C.ar    
  19 O19            2.4998     4.1565     1.0044 O.2     
  20 O20            0.4524     4.3551    -0.4155 O.2     
  21 C21           -1.1381     4.3459     1.9863 C.ar    
  22 C22            0.7613     3.8410     3.3552 C.ar    
  23 C23           -0.0061     4.0234     4.4904 C.ar    
  24 C24           -1.3409     4.3705     4.3747 C.ar    
  25 C25           -1.9079     4.5298     3.1202 C.ar    
  26 Cl26          -3.5836     4.9583     2.9724 Cl      
  27 F27            0.5363    -4.0772    -0.9711 F       
  28 F28           -2.0917     4.5490     5.4836 F       
  29 Cl29          -5.1499     4.2291    -0.5814 Cl      
  30 H30            3.3202     1.8810     0.7406 H       
  31 H31           -2.0573     1.2255     1.6243 H       
  32 H32           -4.2007     2.4087     1.3898 H       
  33 H33           -2.8126     4.2445    -2.2051 H       
  34 H34           -0.6587     3.0787    -1.9799 H       
  35 H35           -1.9073    -0.3142    -0.7560 H       
  36 H36           -1.6704    -2.7067    -1.1643 H       
  37 H37            2.4923    -2.5405    -0.2767 H       
  38 H38           -1.5794     4.4692     1.0083 H       
  39 H39            1.8029     3.5701     3.4457 H       
  40 H40            0.4358     3.8946     5.4675 H       
@<TRIPOS>BOND
   1    1    2 ar
   2    1    6 ar
   3    1    7 1
   4    2    3 ar
   5    2   13 ar
   6    3    4 ar
   7    3   16 ar
   8    4    5 ar
   9    5    6 ar
  10    5   30 1
  11    6   17 1
  12    7    8 ar
  13    7   12 ar
  14    8    9 ar
  15    8   31 1
  16    9   10 ar
  17    9   32 1
  18   10   11 ar
  19   10   29 1
  20   11   12 ar
  21   11   33 1
  22   12   34 1
  23   13   14 ar
  24   13   35 1
  25   14   15 ar
  26   14   36 1
  27   15   16 ar
  28   15   27 1
  29   16   37 1
  30   17   18 1
  31   17   19 2
  32   17   20 2
  33   18   22 ar
  34   18   21 ar
  35   21   25 ar
  36   21   38 1
  37   22   23 ar
  38   22   39 1
  39   23   24 ar
  40   23   40 1
  41   24   25 ar
  42   24   28 1
  43   25   26 1

#	End of record

