#	Name: ASD02030035
#	Creating user name:	WinNT
#	Creation time:	15. 06. 2019 20:14

#	Modifying user name:	WinNT
#	Modification time:	15. 06. 2019 20:14

#	Program:	/corina/corina34_cracker 3.40 0067  02.08.2006

@<TRIPOS>MOLECULE
ASD02030035
  51   54    0    0    0
SMALL
NO_CHARGES


@<TRIPOS>ATOM
   1 C1            -0.0167     1.3803     0.0096 C.ar    
   2 C2             0.0021    -0.0041     0.0020 C.ar    
   3 C3             1.2029    -0.6807    -0.0131 C.ar    
   4 C4             2.4051     0.0355    -0.0208 C.ar    
   5 C5             2.3775     1.4343    -0.0130 C.ar    
   6 C6             1.1679     2.0960     0.0022 C.ar    
   7 C7             3.6908    -0.6784    -0.0365 C.2     
   8 C8             3.7134    -2.0298    -0.0435 C.2     
   9 C9             4.9912    -2.7393    -0.0591 C.2     
  10 N10            4.9536    -4.0746    -0.0655 N.2     
  11 C11            6.0643    -4.8112    -0.2499 C.2     
  12 C12            7.3459    -4.0395    -0.4754 C.3     
  13 C13            7.2920    -2.5544    -0.2075 C.2     
  14 N14            6.1040    -2.0018    -0.0712 N.2     
  15 C15            8.4447    -4.6375     0.3444 C.2     
  16 C16            9.5018    -3.9042     0.7218 C.2     
  17 C17            9.5888    -2.4817     0.3928 C.2     
  18 C18            8.4740    -1.8274    -0.0426 C.2     
  19 C19            3.7527    -4.7106     0.1211 C.ar    
  20 C20            2.8858    -4.2840     1.1311 C.ar    
  21 C21            1.6903    -4.9166     1.3174 C.ar    
  22 C22            1.3330    -5.9919     0.4967 C.ar    
  23 C23            2.2010    -6.4181    -0.5143 C.ar    
  24 C24            3.3940    -5.7814    -0.7025 C.ar    
  25 C25            0.0428    -6.6757     0.6975 C.2     
  26 O26           -0.7108    -6.3055     1.5760 O.2     
  27 O27           -0.3011    -7.7114    -0.0931 O.3     
  28 N28            1.1362     3.5758     0.0104 N.pl3   
  29 O29            2.1777     4.2073     0.0038 O.2     
  30 O30            0.0686     4.1620     0.0238 O.2     
  31 O31           10.5083    -4.4918     1.4216 O.3     
  32 C32           10.3684    -5.8834     1.7145 C.3     
  33 O33            6.0396    -6.0259    -0.2358 O.2     
  34 H34           -0.9609     1.9045     0.0170 H       
  35 H35           -0.9266    -0.5553     0.0083 H       
  36 H36            1.2159    -1.7606    -0.0187 H       
  37 H37            3.3010     1.9942    -0.0185 H       
  38 H38            4.6170    -0.1228    -0.0424 H       
  39 H39            2.7873    -2.5854    -0.0376 H       
  40 H40            7.6234    -4.1704    -1.5213 H       
  41 H41            8.3855    -5.6754     0.6370 H       
  42 H42           10.5261    -1.9548     0.4935 H       
  43 H43            8.5040    -0.7688    -0.2547 H       
  44 H44            3.1618    -3.4539     1.7645 H       
  45 H45            1.0208    -4.5873     2.0982 H       
  46 H46            1.9260    -7.2484    -1.1478 H       
  47 H47            4.0641    -6.1101    -1.4832 H       
  48 H48           -1.1570    -8.1281     0.0767 H       
  49 H49           11.2380    -6.2259     2.2753 H       
  50 H50            9.4680    -6.0411     2.3082 H       
  51 H51           10.2925    -6.4449     0.7832 H       
@<TRIPOS>BOND
   1    1    2 ar
   2    1    6 ar
   3    1   34 1
   4    2    3 ar
   5    2   35 1
   6    3    4 ar
   7    3   36 1
   8    4    5 ar
   9    4    7 1
  10    5    6 ar
  11    5   37 1
  12    6   28 1
  13    7    8 2
  14    7   38 1
  15    8    9 1
  16    8   39 1
  17    9   10 2
  18    9   14 1
  19   10   11 1
  20   10   19 1
  21   11   12 1
  22   11   33 2
  23   12   13 1
  24   12   15 1
  25   12   40 1
  26   13   14 2
  27   13   18 1
  28   15   16 2
  29   15   41 1
  30   16   17 1
  31   16   31 1
  32   17   18 2
  33   17   42 1
  34   18   43 1
  35   19   20 ar
  36   19   24 ar
  37   20   21 ar
  38   20   44 1
  39   21   22 ar
  40   21   45 1
  41   22   23 ar
  42   22   25 1
  43   23   24 ar
  44   23   46 1
  45   24   47 1
  46   25   26 2
  47   25   27 1
  48   27   48 1
  49   28   29 2
  50   28   30 2
  51   31   32 1
  52   32   49 1
  53   32   50 1
  54   32   51 1

#	End of record

