#	Name: ASD07930363
#	Creating user name:	WinNT
#	Creation time:	15. 06. 2019 21:12

#	Modifying user name:	WinNT
#	Modification time:	15. 06. 2019 21:12

#	Program:	/corina/corina34_cracker 3.40 0067  02.08.2006

@<TRIPOS>MOLECULE
ASD07930363
  49   50    0    0    0
SMALL
NO_CHARGES


@<TRIPOS>ATOM
   1 N1            -0.0053     1.4460     0.2220 N.pl3   
   2 C2             0.0021    -0.0041     0.0020 C.3     
   3 C3             0.8318    -0.6772     1.1047 C.3     
   4 S4             2.4912     0.0723     1.1046 S.o2    
   5 N5             2.1554     1.7044     1.1135 N.am    
   6 C6             1.1740     2.1392     0.2522 C.2     
   7 C7            -1.4106    -0.5271     0.0446 C.ar    
   8 C8            -1.9495    -1.1505    -1.0650 C.ar    
   9 C9             2.8695     2.6310     1.9953 C.3     
  10 C10            0.6212    -0.3109    -1.3631 C.3     
  11 C11           -3.4632    -0.8678     1.2398 C.ar    
  12 C12           -4.0088    -1.4871     0.1306 C.ar    
  13 C13           -3.2500    -1.6326    -1.0260 C.ar    
  14 O14            3.1514    -0.1638     2.3406 O.2     
  15 O15            3.1457    -0.1515    -0.1367 O.2     
  16 F16           -5.2751    -1.9561     0.1723 F       
  17 N17           -3.7977    -2.2640    -2.1490 N.pl3   
  18 C18           -2.1648    -0.3875     1.1968 C.ar    
  19 F19           -1.6335     0.2178     2.2814 F       
  20 N20            1.3649     3.1956    -0.5227 N.2     
  21 O21            0.5908     4.6773    -2.1427 O.3     
  22 C22           -0.4858     5.0532    -3.0040 C.3     
  23 C23           -1.7220     5.3781    -2.1631 C.3     
  24 C24           -0.0828     6.2858    -3.8159 C.3     
  25 C25           -0.8051     3.8980    -3.9551 C.3     
  26 C26            0.3962     3.6005    -1.3529 C.2     
  27 O27           -0.6604     2.9975    -1.3954 O.2     
  28 H28           -0.8464     1.9141     0.3419 H       
  29 H29            0.3561    -0.5174     2.0723 H       
  30 H30            0.9108    -1.7458     0.9050 H       
  31 H31           -1.3587    -1.2621    -1.9621 H       
  32 H32            3.7541     3.0104     1.4839 H       
  33 H33            2.2149     3.4631     2.2547 H       
  34 H34            3.1707     2.1090     2.9035 H       
  35 H35            1.6437     0.0656    -1.3912 H       
  36 H36            0.6263    -1.3887    -1.5257 H       
  37 H37            0.0346     0.1717    -2.1448 H       
  38 H38           -4.0515    -0.7539     2.1383 H       
  39 H39           -4.7070    -2.6004    -2.1210 H       
  40 H40           -3.2678    -2.3650    -2.9552 H       
  41 H41           -1.4945     6.2011    -1.4856 H       
  42 H42           -2.5432     5.6648    -2.8201 H       
  43 H43           -2.0091     4.5000    -1.5847 H       
  44 H44            0.7979     6.0542    -4.4150 H       
  45 H45           -0.9040     6.5724    -4.4729 H       
  46 H46            0.1447     7.1087    -3.1384 H       
  47 H47           -1.0922     3.0199    -3.3766 H       
  48 H48           -1.6263     4.1847    -4.6120 H       
  49 H49            0.0756     3.6665    -4.5541 H       
@<TRIPOS>BOND
   1    1    2 1
   2    1    6 1
   3    1   28 1
   4    2    3 1
   5    2    7 1
   6    2   10 1
   7    3    4 1
   8    3   29 1
   9    3   30 1
  10    4    5 am
  11    4   14 2
  12    4   15 2
  13    5    6 1
  14    5    9 1
  15    6   20 2
  16    7   18 ar
  17    7    8 ar
  18    8   13 ar
  19    8   31 1
  20    9   32 1
  21    9   33 1
  22    9   34 1
  23   10   35 1
  24   10   36 1
  25   10   37 1
  26   11   12 ar
  27   11   18 ar
  28   11   38 1
  29   12   13 ar
  30   12   16 1
  31   13   17 1
  32   17   39 1
  33   17   40 1
  34   18   19 1
  35   20   26 1
  36   21   22 1
  37   21   26 1
  38   22   23 1
  39   22   24 1
  40   22   25 1
  41   23   41 1
  42   23   42 1
  43   23   43 1
  44   24   44 1
  45   24   45 1
  46   24   46 1
  47   25   47 1
  48   25   48 1
  49   25   49 1
  50   26   27 2

#	End of record

