#	Name: ASD01190137
#	Creating user name:	WinNT
#	Creation time:	15. 06. 2019 19:07

#	Modifying user name:	WinNT
#	Modification time:	15. 06. 2019 19:07

#	Program:	/corina/corina34_cracker 3.40 0067  02.08.2006

@<TRIPOS>MOLECULE
ASD01190137
  68   71    0    0    0
SMALL
NO_CHARGES


@<TRIPOS>ATOM
   1 N1             0.4306     0.1754     0.0395 N.pl3   
   2 C2             0.1824    -1.1413    -0.2758 C.2     
   3 C3             1.2739    -1.8787     0.1312 C.2     
   4 C4             2.1862    -0.9835     0.6982 C.2     
   5 C5             1.6482     0.2576     0.6292 C.2     
   6 C6            -1.0240    -1.6645    -0.9256 C.2     
   7 O7            -2.0066    -0.9566    -1.0450 O.2     
   8 N8            -1.0443    -2.9295    -1.3904 N.am    
   9 C9             0.1408    -3.7796    -1.2527 C.3     
  10 C10           -2.2515    -3.4543    -2.0335 C.3     
  11 C11           -2.1914    -3.1746    -3.5365 C.3     
  12 O12           -2.1093    -1.7649    -3.7558 O.3     
  13 C13           -2.2656    -1.3793    -5.1229 C.3     
  14 O14           -1.0397    -3.8112    -4.0938 O.3     
  15 C15           -1.1709    -4.1416    -5.4778 C.3     
  16 C16            3.5294    -1.3370     1.2830 C.3     
  17 C17            4.3079    -2.1997     0.2877 C.3     
  18 O18            4.2623    -0.1398     1.5508 O.3     
  19 N19            2.6490    -4.3708     5.9338 N.pl3   
  20 N20            1.8554    -5.3830     5.3841 N.2     
  21 C21            1.6872    -5.1771     4.1085 C.2     
  22 C22            2.4033    -3.9555     3.7550 C.ar    
  23 C23            2.5854    -3.2451     2.5632 C.ar    
  24 C24            3.3329    -2.1032     2.5657 C.ar    
  25 C25            3.9149    -1.6406     3.7397 C.ar    
  26 C26            3.7516    -2.3171     4.9154 C.ar    
  27 C27            2.9941    -3.4848     4.9437 C.ar    
  28 C28            3.0260    -4.2737     7.2795 C.ar    
  29 C29            2.1507    -4.6804     8.2779 C.ar    
  30 C30            2.5243    -4.5837     9.6039 C.ar    
  31 C31            3.7708    -4.0816     9.9382 C.ar    
  32 C32            4.6453    -3.6755     8.9441 C.ar    
  33 C33            4.2778    -3.7758     7.6167 C.ar    
  34 F34            4.1342    -3.9874    11.2360 F       
  35 F35            4.4903    -1.4884    -0.9031 F       
  36 F36            5.5548    -2.5279     0.8306 F       
  37 F37            3.5904    -3.3718     0.0256 F       
  38 C38           -0.4688     1.3014    -0.2242 C.3     
  39 C39           -1.4510     1.4362     0.9107 C.2     
  40 C40           -1.5440     2.5669     1.5657 C.2     
  41 H41            1.4004    -2.9466     0.0309 H       
  42 H42            2.1134     1.1647     0.9860 H       
  43 H43            0.1525    -4.2284    -0.2594 H       
  44 H44            0.1133    -4.5663    -2.0066 H       
  45 H45            1.0384    -3.1765    -1.3894 H       
  46 H46           -2.3141    -4.5295    -1.8662 H       
  47 H47           -3.1299    -2.9687    -1.6084 H       
  48 H48           -3.0896    -3.5651    -4.0149 H       
  49 H49           -2.4663    -0.3094    -5.1779 H       
  50 H50           -1.3513    -1.6062    -5.6712 H       
  51 H51           -3.0985    -1.9282    -5.5623 H       
  52 H52           -1.9979    -4.8396    -5.6080 H       
  53 H53           -1.3669    -3.2352    -6.0507 H       
  54 H54           -0.2479    -4.6019    -5.8305 H       
  55 H55            3.8271     0.4564     2.1754 H       
  56 H56            1.1193    -5.7997     3.4331 H       
  57 H57            2.1371    -3.5986     1.6464 H       
  58 H58            4.5037    -0.7354     3.7225 H       
  59 H59            4.2096    -1.9470     5.8208 H       
  60 H60            1.1783    -5.0716     8.0176 H       
  61 H61            1.8437    -4.8995    10.3807 H       
  62 H62            5.6168    -3.2839     9.2069 H       
  63 H63            4.9618    -3.4635     6.8415 H       
  64 H64            0.1135     2.2187    -0.3117 H       
  65 H65           -1.0097     1.1243    -1.1538 H       
  66 H66           -2.0783     0.6007     1.1841 H       
  67 H67           -0.9167     3.4025     1.2923 H       
  68 H68           -2.2479     2.6635     2.3790 H       
@<TRIPOS>BOND
   1    1    2 1
   2    1    5 1
   3    1   38 1
   4    2    3 2
   5    2    6 1
   6    3    4 1
   7    3   41 1
   8    4    5 2
   9    4   16 1
  10    5   42 1
  11    6    7 2
  12    6    8 am
  13    8    9 1
  14    8   10 1
  15    9   43 1
  16    9   44 1
  17    9   45 1
  18   10   11 1
  19   10   46 1
  20   10   47 1
  21   11   12 1
  22   11   14 1
  23   11   48 1
  24   12   13 1
  25   13   49 1
  26   13   50 1
  27   13   51 1
  28   14   15 1
  29   15   52 1
  30   15   53 1
  31   15   54 1
  32   16   17 1
  33   16   18 1
  34   16   24 1
  35   17   35 1
  36   17   36 1
  37   17   37 1
  38   18   55 1
  39   19   20 1
  40   19   27 1
  41   19   28 1
  42   20   21 2
  43   21   22 1
  44   21   56 1
  45   22   23 ar
  46   22   27 ar
  47   23   24 ar
  48   23   57 1
  49   24   25 ar
  50   25   26 ar
  51   25   58 1
  52   26   27 ar
  53   26   59 1
  54   28   29 ar
  55   28   33 ar
  56   29   30 ar
  57   29   60 1
  58   30   31 ar
  59   30   61 1
  60   31   32 ar
  61   31   34 1
  62   32   33 ar
  63   32   62 1
  64   33   63 1
  65   38   39 1
  66   38   64 1
  67   38   65 1
  68   39   40 2
  69   39   66 1
  70   40   67 1
  71   40   68 1

#	End of record

