#	Name: ASD01180107
#	Creating user name:	WinNT
#	Creation time:	15. 06. 2019 19:06

#	Modifying user name:	WinNT
#	Modification time:	15. 06. 2019 19:06

#	Program:	/corina/corina34_cracker 3.40 0067  02.08.2006

@<TRIPOS>MOLECULE
ASD01180107
  21   22    0    0    0
SMALL
NO_CHARGES


@<TRIPOS>ATOM
   1 N1            -0.0157     1.3078     0.0092 N.ar    
   2 C2             0.0021    -0.0041     0.0020 C.ar    
   3 C3             1.1963    -0.7205    -0.0127 C.ar    
   4 C4             2.3901    -0.0563    -0.0205 C.ar    
   5 C5             2.3676     1.3508    -0.0132 C.ar    
   6 C6             3.5547     2.1013    -0.0209 C.ar    
   7 C7             3.4909     3.4611    -0.0139 C.ar    
   8 C8             2.2626     4.1193     0.0012 C.ar    
   9 C9             1.0932     3.4237     0.0091 C.ar    
  10 C10            1.1176     2.0180     0.0022 C.ar    
  11 C11            1.1718    -2.2272    -0.0196 C.3     
  12 O12           -1.2592     1.9851     0.0187 O.3     
  13 H13           -0.9340    -0.5426     0.0080 H       
  14 H14            3.3253    -0.5962    -0.0316 H       
  15 H15            4.5125     1.6025    -0.0319 H       
  16 H16            4.4043     4.0374    -0.0199 H       
  17 H17            2.2385     5.1990     0.0072 H       
  18 H18            0.1499     3.9494     0.0208 H       
  19 H19            1.1560    -2.5857    -1.0489 H       
  20 H20            2.0605    -2.6074     0.4840 H       
  21 H21            0.2809    -2.5785     0.5011 H       
@<TRIPOS>BOND
   1    1    2 ar
   2    1   10 ar
   3    1   12 1
   4    2    3 ar
   5    2   13 1
   6    3    4 ar
   7    3   11 1
   8    4    5 ar
   9    4   14 1
  10    5    6 ar
  11    5   10 ar
  12    6    7 ar
  13    6   15 1
  14    7    8 ar
  15    7   16 1
  16    8    9 ar
  17    8   17 1
  18    9   10 ar
  19    9   18 1
  20   11   19 1
  21   11   20 1
  22   11   21 1

#	End of record

