#	Name: ASD01209115
#	Creating user name:	WinNT
#	Creation time:	15. 06. 2019 19:11

#	Modifying user name:	WinNT
#	Modification time:	15. 06. 2019 19:11

#	Program:	/corina/corina34_cracker 3.40 0067  02.08.2006

@<TRIPOS>MOLECULE
ASD01209115
  81   83    0    0    0
SMALL
NO_CHARGES


@<TRIPOS>ATOM
   1 C1            -0.2049     2.4444     0.2960 C.ar    
   2 C2            -0.0076     1.0715     0.2820 C.ar    
   3 C3            -1.0949     0.2105     0.2399 C.ar    
   4 C4            -2.3827     0.7191     0.2116 C.ar    
   5 C5            -2.5859     2.0998     0.2260 C.ar    
   6 C6            -1.4898     2.9618     0.2738 C.ar    
   7 O7             0.8636     3.2832     0.3374 O.3     
   8 C8             0.5952     4.6820     0.2219 C.3     
   9 C9             1.8326     5.3951    -0.3270 C.3     
  10 O10           -0.8959    -1.1338     0.2259 O.3     
  11 C11            0.4582    -1.5895     0.2562 C.3     
  12 C12            0.4821    -3.1191     0.2348 C.3     
  13 C13            1.9101    -3.5997     0.2668 C.ar    
  14 C14            2.5323    -3.8374     1.4781 C.ar    
  15 C15           -3.9586     2.6473     0.1960 C.2     
  16 N16           -5.0161     1.8128     0.1546 N.am    
  17 O17           -4.1335     3.8499     0.2086 O.2     
  18 C18           -6.2987     2.3244     0.1266 C.2     
  19 S19           -6.7049     4.0446     0.1397 S.3     
  20 C20           -8.5102     3.8036     0.0867 C.3     
  21 C21           -8.6608     2.2744     0.0609 C.3     
  22 N22           -7.3710     1.6210     0.0816 N.2     
  23 C23           -9.4732     1.8298     1.2788 C.3     
  24 P24           -9.7843     0.0363     1.1799 P.3     
  25 O25          -10.4345    -0.2812    -0.1111 O.2     
  26 C26            0.2483     5.2502     1.5995 C.3     
  27 C27            2.5959    -3.8082    -0.9152 C.ar    
  28 C28            3.9057    -4.2490    -0.8858 C.ar    
  29 C29            4.5300    -4.4809     0.3256 C.ar    
  30 C30            3.8422    -4.2782     1.5075 C.ar    
  31 O31            2.9001     5.2917     0.6174 O.3     
  32 C32            4.1093     5.9284     0.1997 C.3     
  33 O33           -8.3876    -0.7574     1.2869 O.3     
  34 C34           -8.2791    -2.1702     1.1016 C.3     
  35 C35           -7.4050    -2.4586    -0.1206 C.3     
  36 C36           -7.6439    -2.8000     2.3429 C.3     
  37 O37          -10.7485    -0.4087     2.3901 O.3     
  38 C38          -11.2953    -1.7238     2.5064 C.3     
  39 C39          -10.9732    -2.2895     3.8910 C.3     
  40 C40          -12.8127    -1.6635     2.3204 C.3     
  41 H41            0.9954     0.6715     0.3036 H       
  42 H42           -3.2284     0.0483     0.1781 H       
  43 H43           -1.6426     4.0308     0.2855 H       
  44 H44           -0.2438     4.8362    -0.4565 H       
  45 H45            2.1325     4.9311    -1.2666 H       
  46 H46            1.6000     6.4461    -0.4987 H       
  47 H47            0.9904    -1.2055    -0.6141 H       
  48 H48            0.9418    -1.2313     1.1650 H       
  49 H49           -0.0501    -3.5031     1.1051 H       
  50 H50           -0.0015    -3.4774    -0.6740 H       
  51 H51            1.9952    -3.6784     2.4015 H       
  52 H52           -4.8765     0.8530     0.1446 H       
  53 H53           -8.9804     4.2214     0.9768 H       
  54 H54           -8.9311     4.2467    -0.8159 H       
  55 H55           -9.1908     1.9827    -0.8458 H       
  56 H56           -8.9155     2.0522     2.1885 H       
  57 H57          -10.4238     2.3630     1.2958 H       
  58 H58           -0.6332     4.7421     1.9905 H       
  59 H59            1.0874     5.0960     2.2779 H       
  60 H60            0.0436     6.3171     1.5114 H       
  61 H61            2.1082    -3.6270    -1.8616 H       
  62 H62            4.4413    -4.4126    -1.8093 H       
  63 H63            5.5532    -4.8256     0.3485 H       
  64 H64            4.3299    -4.4593     2.4539 H       
  65 H65            4.8699     5.8050     0.9706 H       
  66 H66            4.4564     5.4755    -0.7290 H       
  67 H67            3.9240     6.9904     0.0389 H       
  68 H68           -9.2714    -2.5936     0.9466 H       
  69 H69           -6.4126    -2.0351     0.0343 H       
  70 H70           -7.3222    -3.5362    -0.2619 H       
  71 H71           -7.8575    -2.0098    -1.0049 H       
  72 H72           -8.2079    -2.5064     3.2282 H       
  73 H73           -7.6577    -3.8857     2.2469 H       
  74 H74           -6.6138    -2.4567     2.4378 H       
  75 H75          -10.8607    -2.3669     1.7411 H       
  76 H76          -11.4972    -1.7101     4.6511 H       
  77 H77          -11.2939    -3.3300     3.9420 H       
  78 H78           -9.8989    -2.2314     4.0663 H       
  79 H79          -13.2298    -2.6667     2.4091 H       
  80 H80          -13.2473    -1.0204     3.0857 H       
  81 H81          -13.0422    -1.2605     1.3340 H       
@<TRIPOS>BOND
   1    1    2 ar
   2    1    7 1
   3    1    6 ar
   4    2    3 ar
   5    2   41 1
   6    3    4 ar
   7    3   10 1
   8    4    5 ar
   9    4   42 1
  10    5    6 ar
  11    5   15 1
  12    6   43 1
  13    7    8 1
  14    8    9 1
  15    8   26 1
  16    8   44 1
  17    9   31 1
  18    9   45 1
  19    9   46 1
  20   10   11 1
  21   11   12 1
  22   11   47 1
  23   11   48 1
  24   12   13 1
  25   12   49 1
  26   12   50 1
  27   13   14 ar
  28   13   27 ar
  29   14   30 ar
  30   14   51 1
  31   15   16 am
  32   15   17 2
  33   16   18 1
  34   16   52 1
  35   18   19 1
  36   18   22 2
  37   19   20 1
  38   20   21 1
  39   20   53 1
  40   20   54 1
  41   21   22 1
  42   21   23 1
  43   21   55 1
  44   23   24 1
  45   23   56 1
  46   23   57 1
  47   24   25 2
  48   24   33 1
  49   24   37 1
  50   26   58 1
  51   26   59 1
  52   26   60 1
  53   27   28 ar
  54   27   61 1
  55   28   29 ar
  56   28   62 1
  57   29   30 ar
  58   29   63 1
  59   30   64 1
  60   31   32 1
  61   32   65 1
  62   32   66 1
  63   32   67 1
  64   33   34 1
  65   34   35 1
  66   34   36 1
  67   34   68 1
  68   35   69 1
  69   35   70 1
  70   35   71 1
  71   36   72 1
  72   36   73 1
  73   36   74 1
  74   37   38 1
  75   38   39 1
  76   38   40 1
  77   38   75 1
  78   39   76 1
  79   39   77 1
  80   39   78 1
  81   40   79 1
  82   40   80 1
  83   40   81 1

#	End of record

