#	Name: ASD01914372
#	Creating user name:	WinNT
#	Creation time:	15. 06. 2019 20:03

#	Modifying user name:	WinNT
#	Modification time:	15. 06. 2019 20:03

#	Program:	/corina/corina34_cracker 3.40 0067  02.08.2006

@<TRIPOS>MOLECULE
ASD01914372
  32   33    0    0    0
SMALL
NO_CHARGES


@<TRIPOS>ATOM
   1 C1            -0.0167     1.3804     0.0096 C.ar    
   2 C2             0.0021    -0.0041     0.0020 C.ar    
   3 C3             1.2093    -0.6821    -0.0127 C.ar    
   4 C4             2.3977     0.0217    -0.0198 C.ar    
   5 C5             2.3813     1.4103    -0.0126 C.ar    
   6 C6             1.1693     2.0883     0.0021 C.ar    
   7 N7             3.5831     2.1248    -0.0193 N.pl3   
   8 C8             3.5645     3.5897    -0.0117 C.3     
   9 C9             4.9788     4.1100    -0.0212 C.2     
  10 C10            5.2290     5.5587    -0.0161 C.ar    
  11 C11            4.1564     6.4570    -0.0023 C.ar    
  12 C12            4.3978     7.8134     0.0029 C.ar    
  13 C13            5.7007     8.2890    -0.0053 C.ar    
  14 C14            6.7688     7.4037    -0.0194 C.ar    
  15 C15            6.5413     6.0453    -0.0190 C.ar    
  16 O16            5.9105     3.3338    -0.0331 O.2     
  17 F17            5.9307     9.6203    -0.0001 F       
  18 F18           -1.1592    -0.6944     0.0094 F       
  19 C19            8.1811     7.9295    -0.0288 C.3     
  20 H20           -0.9595     1.9072     0.0169 H       
  21 H21            1.2216    -1.7620    -0.0182 H       
  22 H22            3.3391    -0.5076    -0.0305 H       
  23 H23            1.1542     3.1681     0.0073 H       
  24 H24            4.4292     1.6505    -0.0289 H       
  25 H25            3.0385     3.9509    -0.8954 H       
  26 H26            3.0538     3.9419     0.8844 H       
  27 H27            3.1414     6.0880     0.0038 H       
  28 H28            3.5708     8.5079     0.0132 H       
  29 H29            7.3737     5.3572    -0.0299 H       
  30 H30            8.5305     8.0507     0.9965 H       
  31 H31            8.8276     7.2250    -0.5521 H       
  32 H32            8.2066     8.8931    -0.5377 H       
@<TRIPOS>BOND
   1    1    2 ar
   2    1    6 ar
   3    1   20 1
   4    2    3 ar
   5    2   18 1
   6    3    4 ar
   7    3   21 1
   8    4    5 ar
   9    4   22 1
  10    5    6 ar
  11    5    7 1
  12    6   23 1
  13    7    8 1
  14    7   24 1
  15    8    9 1
  16    8   25 1
  17    8   26 1
  18    9   10 1
  19    9   16 2
  20   10   11 ar
  21   10   15 ar
  22   11   12 ar
  23   11   27 1
  24   12   13 ar
  25   12   28 1
  26   13   14 ar
  27   13   17 1
  28   14   15 ar
  29   14   19 1
  30   15   29 1
  31   19   30 1
  32   19   31 1
  33   19   32 1

#	End of record

