#	Name: ASD04882043
#	Creating user name:	WinNT
#	Creation time:	15. 06. 2019 20:53

#	Modifying user name:	WinNT
#	Modification time:	15. 06. 2019 20:53

#	Program:	/corina/corina34_cracker 3.40 0067  02.08.2006

@<TRIPOS>MOLECULE
ASD04882043
  76   80    0    0    0
SMALL
NO_CHARGES


@<TRIPOS>ATOM
   1 C1             1.5169     1.4361     1.7946 C.ar    
   2 C2             1.4790     0.0559     1.8136 C.ar    
   3 C3             2.6599    -0.6685     1.9182 C.ar    
   4 C4             3.8750    -0.0012     2.0034 C.ar    
   5 C5             3.9057     1.3796     1.9838 C.ar    
   6 C6             2.7286     2.0974     1.8796 C.ar    
   7 C7             5.1584    -0.7828     2.1176 C.3     
   8 N8             2.6251    -2.0646     1.9382 N.3     
   9 C9             3.2406    -2.6242     0.7267 C.3     
  10 C10            3.2543    -4.1515     0.8234 C.3     
  11 N11            1.8785    -4.6418     0.9863 N.3     
  12 C12            1.2630    -4.0823     2.1978 C.3     
  13 C13            1.2493    -2.5549     2.1011 C.3     
  14 C14            1.8439    -6.0336     1.0062 C.ar    
  15 C15            2.1813    -6.7566    -0.1414 C.ar    
  16 C16            2.1468    -8.1382    -0.1213 C.ar    
  17 C17            1.7743    -8.8079     1.0476 C.ar    
  18 C18            1.4380    -8.0787     2.1916 C.ar    
  19 C19            1.4791    -6.7024     2.1692 C.ar    
  20 C20            1.7356   -10.2825     1.0736 C.2     
  21 N21            1.3762   -10.9274     2.2012 N.am    
  22 O22            2.0278   -10.9160     0.0777 O.2     
  23 C23            1.3377   -12.3916     2.2270 C.3     
  24 C24            0.9021   -12.8659     3.6149 C.3     
  25 C25            0.8619   -14.3952     3.6419 C.3     
  26 N26            0.4448   -14.8493     4.9708 N.am    
  27 C27           -0.9492   -15.0819     5.3666 C.3     
  28 C28           -0.9393   -15.1135     6.9111 C.3     
  29 C29            0.5158   -15.5441     7.2083 C.3     
  30 C30            1.2900   -15.1121     5.9824 C.2     
  31 O31            2.4971   -15.0105     5.9233 O.2     
  32 N32            2.5537    -6.0816    -1.3110 N.am    
  33 C33            3.3587    -6.6832    -2.2090 C.2     
  34 O34            3.6980    -7.8384    -2.0429 O.2     
  35 C35            3.8300    -5.9366    -3.3982 C.ar    
  36 C36            4.6657    -6.5418    -4.3420 C.ar    
  37 C37            3.4469    -4.6088    -3.6113 C.ar    
  38 C38            3.9095    -3.9503    -4.7341 C.ar    
  39 N39            4.7000    -4.5570    -5.5970 N.ar    
  40 C40            5.0811    -5.8086    -5.4365 C.ar    
  41 H41            0.5996     1.9998     1.7087 H       
  42 H42            0.5324    -0.4598     1.7475 H       
  43 H43            4.8502     1.8991     2.0500 H       
  44 H44            2.7555     3.1770     1.8642 H       
  45 H45            5.5082    -1.0544     1.1216 H       
  46 H46            5.9128    -0.1721     2.6136 H       
  47 H47            4.9825    -1.6872     2.7000 H       
  48 H48            2.6646    -2.3203    -0.1474 H       
  49 H49            4.2625    -2.2564     0.6349 H       
  50 H50            3.6840    -4.5697    -0.0868 H       
  51 H51            3.8529    -4.4562     1.6819 H       
  52 H52            0.2411    -4.4501     2.2896 H       
  53 H53            1.8391    -4.3862     3.0719 H       
  54 H54            0.8196    -2.1367     3.0113 H       
  55 H55            0.6507    -2.2503     1.2426 H       
  56 H56            2.4068    -8.6991    -1.0069 H       
  57 H57            1.1500    -8.5952     3.0953 H       
  58 H58            1.2193    -6.1411     3.0545 H       
  59 H59            1.1430   -10.4220     2.9956 H       
  60 H60            0.6279   -12.7497     1.4813 H       
  61 H61            2.3293   -12.7851     2.0032 H       
  62 H62            1.6119   -12.5079     4.3606 H       
  63 H63           -0.0895   -12.4724     3.8387 H       
  64 H64            0.1521   -14.7532     2.8961 H       
  65 H65            1.8535   -14.7887     3.4181 H       
  66 H66           -1.5830   -14.2700     5.0100 H       
  67 H67           -1.2992   -16.0358     4.9721 H       
  68 H68           -1.1454   -14.1255     7.3227 H       
  69 H69           -1.6489   -15.8485     7.2908 H       
  70 H70            0.8898   -15.0367     8.0975 H       
  71 H71            0.5760   -16.6255     7.3312 H       
  72 H72            2.2322    -5.1812    -1.4746 H       
  73 H73            4.9818    -7.5669    -4.2169 H       
  74 H74            2.7989    -4.1057    -2.9089 H       
  75 H75            3.6192    -2.9246    -4.9075 H       
  76 H76            5.7301    -6.2659    -6.1687 H       
@<TRIPOS>BOND
   1    1    2 ar
   2    1    6 ar
   3    1   41 1
   4    2    3 ar
   5    2   42 1
   6    3    4 ar
   7    3    8 1
   8    4    5 ar
   9    4    7 1
  10    5    6 ar
  11    5   43 1
  12    6   44 1
  13    7   45 1
  14    7   46 1
  15    7   47 1
  16    8    9 1
  17    8   13 1
  18    9   10 1
  19    9   48 1
  20    9   49 1
  21   10   11 1
  22   10   50 1
  23   10   51 1
  24   11   12 1
  25   11   14 1
  26   12   13 1
  27   12   52 1
  28   12   53 1
  29   13   54 1
  30   13   55 1
  31   14   15 ar
  32   14   19 ar
  33   15   16 ar
  34   15   32 1
  35   16   17 ar
  36   16   56 1
  37   17   18 ar
  38   17   20 1
  39   18   19 ar
  40   18   57 1
  41   19   58 1
  42   20   21 am
  43   20   22 2
  44   21   23 1
  45   21   59 1
  46   23   24 1
  47   23   60 1
  48   23   61 1
  49   24   25 1
  50   24   62 1
  51   24   63 1
  52   25   26 1
  53   25   64 1
  54   25   65 1
  55   26   27 1
  56   26   30 am
  57   27   28 1
  58   27   66 1
  59   27   67 1
  60   28   29 1
  61   28   68 1
  62   28   69 1
  63   29   30 1
  64   29   70 1
  65   29   71 1
  66   30   31 2
  67   32   33 am
  68   32   72 1
  69   33   34 2
  70   33   35 1
  71   35   36 ar
  72   35   37 ar
  73   36   40 ar
  74   36   73 1
  75   37   38 ar
  76   37   74 1
  77   38   39 ar
  78   38   75 1
  79   39   40 ar
  80   40   76 1

#	End of record

