#	Name: ASD00070115
#	Creating user name:	WinNT
#	Creation time:	15. 06. 2019 18:30

#	Modifying user name:	WinNT
#	Modification time:	15. 06. 2019 18:30

#	Program:	/corina/corina34_cracker 3.40 0067  02.08.2006

@<TRIPOS>MOLECULE
ASD00070115
  77   82    0    0    0
SMALL
NO_CHARGES


@<TRIPOS>ATOM
   1 C1            -0.0180     1.4730     0.0101 C.2     
   2 C2             0.0021    -0.0041     0.0020 C.ar    
   3 C3             1.2210    -0.6866    -0.0133 C.ar    
   4 C4             1.2385    -2.0631    -0.0204 C.ar    
   5 C5             0.0397    -2.7765    -0.0123 C.ar    
   6 C6            -1.1780    -2.0960     0.0026 C.ar    
   7 C7            -1.1978    -0.7195     0.0155 C.ar    
   8 O8             1.0265     2.0951     0.0035 O.2     
   9 N9            -1.1942     2.1309     0.0193 N.am    
  10 C10            1.2698    -4.9511    -0.0352 C.ar    
  11 C11            0.0598    -4.2591    -0.0199 C.ar    
  12 C12           -1.1343    -4.9858    -0.0115 C.ar    
  13 C13           -1.0615    -6.3683    -0.0187 C.ar    
  14 C14            0.1783    -6.9804    -0.0338 C.ar    
  15 N15            1.2887    -6.2680    -0.0420 N.ar    
  16 C16           -1.2140     3.5958     0.0274 C.3     
  17 C17           -2.5311     4.0912    -0.5734 C.3     
  18 C18           -2.5518     5.6211    -0.5649 C.3     
  19 C19           -2.4262     6.1249     0.8743 C.3     
  20 C20           -1.1092     5.6294     1.4750 C.3     
  21 C21           -1.0884     4.0996     1.4665 C.3     
  22 C22           -2.4470     7.6548     0.8827 C.3     
  23 C23           -2.4471     8.1569     2.3279 C.3     
  24 N24           -2.4670     9.6257     2.3360 N.3     
  25 C25           -2.7058    10.1413     3.6901 C.3     
  26 C26           -2.8648    11.6625     3.6374 C.3     
  27 C27           -1.5940    12.2837     3.0513 C.3     
  28 C28           -1.3415    11.6940     1.6609 C.3     
  29 C29           -1.2266    10.1720     1.7709 C.3     
  30 O30           -0.1296    16.6440     4.2827 O.3     
  31 C31            0.9563    15.7447     4.5636 C.3     
  32 C32            0.2720    14.3578     4.5230 C.3     
  33 C33           -0.9147    14.6208     3.6163 C.ar    
  34 C34           -1.0646    15.9994     3.5321 C.ar    
  35 C35           -1.7677    13.7766     2.9412 C.ar    
  36 C36           -2.7843    14.2995     2.1613 C.ar    
  37 C37           -2.9387    15.6698     2.0635 C.ar    
  38 C38           -2.0871    16.5175     2.7415 C.ar    
  39 H39            2.1492    -0.1345    -0.0199 H       
  40 H40            2.1807    -2.5909    -0.0326 H       
  41 H41           -2.1055    -2.6493     0.0085 H       
  42 H42           -2.1406    -0.1930     0.0315 H       
  43 H43           -2.0276     1.6345     0.0205 H       
  44 H44            2.2000    -4.4025    -0.0464 H       
  45 H45           -2.0893    -4.4817     0.0008 H       
  46 H46           -1.9634    -6.9624    -0.0121 H       
  47 H47            0.2387    -8.0587    -0.0395 H       
  48 H48           -0.3800     3.9737    -0.5640 H       
  49 H49           -2.6206     3.7323    -1.5987 H       
  50 H50           -3.3651     3.7133     0.0180 H       
  51 H51           -1.7178     5.9990    -1.1563 H       
  52 H52           -3.4901     5.9741    -0.9929 H       
  53 H53           -3.2602     5.7470     1.4656 H       
  54 H54           -0.2752     6.0074     0.8836 H       
  55 H55           -1.0197     5.9884     2.5003 H       
  56 H56           -1.9224     3.7217     2.0579 H       
  57 H57           -0.1502     3.7466     1.8945 H       
  58 H58           -1.5645     8.0329     0.3667 H       
  59 H59           -3.3442     8.0087     0.3750 H       
  60 H60           -3.3296     7.7787     2.8439 H       
  61 H61           -1.5498     7.8029     2.8356 H       
  62 H62           -3.6145     9.6949     4.0937 H       
  63 H63           -1.8610     9.8864     4.3300 H       
  64 H64           -3.7179    11.9176     3.0088 H       
  65 H65           -3.0265    12.0466     4.6446 H       
  66 H66           -0.7471    12.0615     3.7005 H       
  67 H67           -2.1706    11.9497     1.0012 H       
  68 H68           -0.4148    12.1006     1.2560 H       
  69 H69           -0.3887     9.9169     2.4198 H       
  70 H70           -1.0610     9.7478     0.7806 H       
  71 H71            1.7266    15.8179     3.7959 H       
  72 H72            1.3740    15.9404     5.5512 H       
  73 H73            0.9349    13.6088     4.0898 H       
  74 H74           -0.0569    14.0564     5.5175 H       
  75 H75           -3.4544    13.6394     1.6306 H       
  76 H76           -3.7300    16.0789     1.4528 H       
  77 H77           -2.2149    17.5868     2.6600 H       
@<TRIPOS>BOND
   1    1    2 1
   2    1    8 2
   3    1    9 am
   4    2    3 ar
   5    2    7 ar
   6    3    4 ar
   7    3   39 1
   8    4    5 ar
   9    4   40 1
  10    5    6 ar
  11    5   11 1
  12    6    7 ar
  13    6   41 1
  14    7   42 1
  15    9   16 1
  16    9   43 1
  17   10   11 ar
  18   10   15 ar
  19   10   44 1
  20   11   12 ar
  21   12   13 ar
  22   12   45 1
  23   13   14 ar
  24   13   46 1
  25   14   15 ar
  26   14   47 1
  27   16   17 1
  28   16   21 1
  29   16   48 1
  30   17   18 1
  31   17   49 1
  32   17   50 1
  33   18   19 1
  34   18   51 1
  35   18   52 1
  36   19   20 1
  37   19   22 1
  38   19   53 1
  39   20   21 1
  40   20   54 1
  41   20   55 1
  42   21   56 1
  43   21   57 1
  44   22   23 1
  45   22   58 1
  46   22   59 1
  47   23   24 1
  48   23   60 1
  49   23   61 1
  50   24   25 1
  51   24   29 1
  52   25   26 1
  53   25   62 1
  54   25   63 1
  55   26   27 1
  56   26   64 1
  57   26   65 1
  58   27   28 1
  59   27   35 1
  60   27   66 1
  61   28   29 1
  62   28   67 1
  63   28   68 1
  64   29   69 1
  65   29   70 1
  66   30   31 1
  67   30   34 1
  68   31   32 1
  69   31   71 1
  70   31   72 1
  71   32   33 1
  72   32   73 1
  73   32   74 1
  74   33   34 ar
  75   33   35 ar
  76   34   38 ar
  77   35   36 ar
  78   36   37 ar
  79   36   75 1
  80   37   38 ar
  81   37   76 1
  82   38   77 1

#	End of record

