#	Name: ASD06590040
#	Creating user name:	WinNT
#	Creation time:	15. 06. 2019 21:06

#	Modifying user name:	WinNT
#	Modification time:	15. 06. 2019 21:06

#	Program:	/corina/corina34_cracker 3.40 0067  02.08.2006

@<TRIPOS>MOLECULE
ASD06590040
 235  234    0    0    0
SMALL
NO_CHARGES


@<TRIPOS>ATOM
   1 C1            -3.4214     0.8772    -2.1771 C.2     
   2 O2            -3.9925    -0.1793    -2.3461 O.2     
   3 N3            -1.3414    -0.3613    -2.3880 N.3     
   4 C4            -1.9386     0.9803    -2.4254 C.3     
   5 C5            -1.6938     1.6094    -3.7984 C.3     
   6 C6            -0.1929     1.8287    -3.9987 C.3     
   7 C7             0.0518     2.4578    -5.3717 C.3     
   8 N8             1.4889     2.6678    -5.5635 N.pl3   
   9 C9             1.9522     3.2250    -6.7314 C.2     
  10 N10            1.1219     3.4996    -7.6958 N.2     
  11 N11            3.2990     3.4938    -6.8818 N.am    
  12 C12           -6.1866     3.2206    -1.7025 C.2     
  13 O13           -5.4984     4.1774    -1.9888 O.2     
  14 N14           -4.1139     1.9604    -1.7727 N.am    
  15 C15           -5.5565     1.8617    -1.5372 C.3     
  16 C16           -5.8076     1.3525    -0.1165 C.3     
  17 C17           -5.2774    -0.0767     0.0142 C.3     
  18 C18           -5.5248    -0.5783     1.4136 C.2     
  19 O19           -6.0693     0.1343     2.2233 O.2     
  20 O20           -5.1403    -1.8166     1.7605 O.3     
  21 C21           -9.4044     4.7558    -0.8951 C.2     
  22 O22           -9.8505     3.7497    -0.3854 O.2     
  23 N23           -7.5149     3.3728    -1.5322 N.am    
  24 C24           -8.1274     4.6938    -1.6929 C.3     
  25 C25           -8.4376     4.9357    -3.1715 C.3     
  26 C26           -7.1329     4.9501    -3.9705 C.3     
  27 O27           -9.2826     3.8911    -3.6580 O.3     
  28 C28          -12.3330     6.7322    -0.9364 C.2     
  29 O29          -11.9762     7.1975    -1.9980 O.2     
  30 N30          -10.0507     5.9293    -0.7479 N.am    
  31 C31          -11.3547     5.9688    -0.0813 C.3     
  32 C32          -11.2134     6.6624     1.2751 C.3     
  33 C33          -10.2115     5.9168     2.1186 C.2     
  34 O34           -9.6111     4.9714     1.6532 O.2     
  35 N35           -9.9828     6.3006     3.3901 N.am    
  36 C36          -15.6453     8.2104    -0.4818 C.2     
  37 O37          -15.6291     8.0161     0.7152 O.2     
  38 N38          -13.6046     6.8979    -0.5213 N.am    
  39 C39          -14.5556     7.6400    -1.3526 C.3     
  40 C40          -15.1715     6.6973    -2.3884 C.3     
  41 C41          -18.6756    10.2544    -1.0419 C.2     
  42 O42          -18.5048    10.3280    -2.2403 O.2     
  43 N43          -16.6379     8.9364    -1.0333 N.am    
  44 C44          -17.6973     9.4909    -0.1868 C.3     
  45 C45          -21.3864    12.6384    -0.4667 C.2     
  46 O46          -21.1141    12.7495     0.7099 O.2     
  47 N47          -19.7404    10.8553    -0.4748 N.am    
  48 C48          -20.6914    11.5974    -1.3060 C.3     
  49 C49          -21.7284    10.6307    -1.8814 C.3     
  50 C50          -21.0391     9.6501    -2.8323 C.3     
  51 C51          -22.0761     8.6835    -3.4077 C.3     
  52 N52          -21.4160     7.7445    -4.3182 N.pl3   
  53 C53          -22.1519     6.7758    -4.9588 C.2     
  54 N54          -21.5647     5.9404    -5.7688 N.2     
  55 N55          -23.5072     6.6883    -4.7449 N.pl3   
  56 C56          -24.3238    14.7855    -0.8197 C.2     
  57 O57          -24.6780    14.2284    -1.8372 O.2     
  58 N58          -22.3106    13.4460    -1.0237 N.am    
  59 C59          -22.9862    14.4580    -0.2078 C.3     
  60 C60          -22.1279    15.7233    -0.1508 C.3     
  61 O61          -22.0324    16.2934    -1.4577 O.3     
  62 C62          -26.0914    17.1682    -1.9083 C.2     
  63 O63          -24.9558    17.5601    -2.0748 O.2     
  64 N64          -25.1266    15.6974    -0.2363 N.am    
  65 C65          -26.3766    16.0965    -0.8879 C.3     
  66 C66          -27.3489    16.6378     0.1621 C.3     
  67 C67          -27.7385    15.5287     1.1051 C.2     
  68 O68          -27.2277    14.4388     0.9997 O.2     
  69 O69          -28.6529    15.7517     2.0621 O.3     
  70 C70          -28.0614    19.5600    -3.8477 C.2     
  71 O71          -29.1163    19.2122    -3.3609 O.2     
  72 N72          -27.0982    17.6911    -2.6358 N.am    
  73 C73          -26.8209    18.7329    -3.6277 C.3     
  74 C74          -26.4012    18.0821    -4.9472 C.3     
  75 C75          -25.1267    17.2640    -4.7296 C.3     
  76 O76          -27.4459    17.2229    -5.4080 O.3     
  77 C77          -29.0225    22.2255    -6.1574 C.2     
  78 O78          -27.9617    22.1766    -6.7432 O.2     
  79 N79          -27.9984    20.6861    -4.5855 N.am    
  80 C80          -29.2226    21.4295    -4.8935 C.3     
  81 C81          -29.5467    22.3792    -3.7386 C.3     
  82 C82          -29.8722    21.5650    -2.4847 C.3     
  83 C83          -30.1963    22.5147    -1.3298 C.3     
  84 N84          -30.5079    21.7351    -0.1292 N.pl3   
  85 C85          -30.8321    22.3772     1.0424 C.2     
  86 N86          -30.8622    23.6796     1.0851 N.2     
  87 N87          -31.1245    21.6456     2.1691 N.pl3   
  88 C88          -29.1733    25.0813    -7.5319 C.2     
  89 O89          -28.8976    25.3456    -6.3855 O.2     
  90 N90          -30.0223    22.9916    -6.6367 N.am    
  91 C91          -29.8278    23.7655    -7.8653 C.3     
  92 C92          -31.1836    24.0231    -8.5258 C.3     
  93 C93          -31.7920    22.6937    -8.9768 C.3     
  94 C94          -33.1274    22.9475    -9.6274 C.2     
  95 O95          -33.5508    24.0801    -9.7212 O.2     
  96 N96          -33.8512    21.9158   -10.1052 N.am    
  97 O97          -28.8965    25.9598    -8.5084 O.3     
  98 C98            4.1749     3.0975    -5.9373 C.2     
  99 O99            3.8008     2.4023    -5.0170 O.2     
 100 C100          21.2957     2.4503     1.6553 C.3     
 101 C101          19.8293     2.0229     1.7442 C.3     
 102 C102          19.0562     2.6029     0.5581 C.3     
 103 C103          17.5898     2.1755     0.6471 C.3     
 104 C104          16.8167     2.7555    -0.5391 C.3     
 105 C105          15.3503     2.3281    -0.4501 C.3     
 106 C106          14.5772     2.9081    -1.6362 C.3     
 107 C107          13.1108     2.4807    -1.5473 C.3     
 108 C108          12.3378     3.0606    -2.7334 C.3     
 109 C109          10.8713     2.6333    -2.6444 C.3     
 110 C110          10.0983     3.2132    -3.8306 C.3     
 111 C111           8.6319     2.7859    -3.7416 C.3     
 112 C112           7.8588     3.3658    -4.9277 C.3     
 113 C113           6.3924     2.9385    -4.8388 C.3     
 114 C114           5.6193     3.5184    -6.0249 C.3     
 115 H115          -1.7469    -0.9574    -3.0939 H       
 116 H116          -0.3385    -0.3136    -2.4875 H       
 117 H117          -1.4835     1.6022    -1.6544 H       
 118 H118          -2.0707     0.9441    -4.5752 H       
 119 H119          -2.2119     2.5666    -3.8570 H       
 120 H120           0.1839     2.4940    -3.2218 H       
 121 H121           0.3251     0.8715    -3.9400 H       
 122 H122          -0.3250     1.7925    -6.1486 H       
 123 H123          -0.4663     3.4150    -5.4304 H       
 124 H124           2.1135     2.4135    -4.8663 H       
 125 H125           1.4361     3.9591    -8.4902 H       
 126 H126           3.6142     3.9677    -7.6673 H       
 127 H127          -3.6571     2.8054    -1.6375 H       
 128 H128          -5.9951     1.1681    -2.2546 H       
 129 H129          -5.2940     1.9972     0.5967 H       
 130 H130          -6.8779     1.3632     0.0894 H       
 131 H131          -5.7911    -0.7214    -0.6989 H       
 132 H132          -4.2071    -0.0874    -0.1917 H       
 133 H133          -5.3203    -2.0938     2.6693 H       
 134 H134          -8.0652     2.6076    -1.3032 H       
 135 H135          -7.4386     5.4595    -1.3362 H       
 136 H136          -8.9435     5.8946    -3.2844 H       
 137 H137          -6.6810     3.9585    -3.9463 H       
 138 H138          -7.3424     5.2288    -5.0033 H       
 139 H139          -6.4458     5.6733    -3.5313 H       
 140 H140         -10.1295     3.8231    -3.1962 H       
 141 H141          -9.6525     6.7477    -1.0833 H       
 142 H142         -11.7180     4.9518     0.0667 H       
 143 H143         -10.8717     7.6866     1.1255 H       
 144 H144         -12.1789     6.6716     1.7808 H       
 145 H145         -10.4630     7.0567     3.7624 H       
 146 H146          -9.3380     5.8206     3.9331 H       
 147 H147         -13.8900     6.5257     0.3278 H       
 148 H148         -14.0363     8.4512    -1.8629 H       
 149 H149         -15.6908     5.8862    -1.8781 H       
 150 H150         -15.8791     7.2495    -3.0069 H       
 151 H151         -14.3833     6.2848    -3.0182 H       
 152 H152         -16.6509     9.0918    -1.9907 H       
 153 H153         -17.2585    10.1625     0.5511 H       
 154 H154         -18.2166     8.6798     0.3235 H       
 155 H155         -19.8770    10.7964     0.4837 H       
 156 H156         -20.1576    12.0853    -2.1215 H       
 157 H157         -22.2002    10.0782    -1.0690 H       
 158 H158         -22.4864    11.1933    -2.4265 H       
 159 H159         -20.5673    10.2027    -3.6448 H       
 160 H160         -20.2811     9.0876    -2.2873 H       
 161 H161         -22.5479     8.1309    -2.5953 H       
 162 H162         -22.8341     9.2460    -3.9528 H       
 163 H163         -20.4598     7.8062    -4.4691 H       
 164 H164         -22.0839     5.2570    -6.2207 H       
 165 H165         -23.9442     7.3100    -4.1421 H       
 166 H166         -24.0264     6.0049    -5.1969 H       
 167 H167         -22.5283    13.3572    -1.9647 H       
 168 H168         -23.1328    14.0726     0.8012 H       
 169 H169         -22.5866    16.4432     0.5270 H       
 170 H170         -21.1306    15.4700     0.2088 H       
 171 H171         -21.5014    17.1006    -1.4968 H       
 172 H172         -24.8768    16.0896     0.6149 H       
 173 H173         -26.8203    15.2325    -1.3827 H       
 174 H174         -26.8685    17.4396     0.7229 H       
 175 H175         -28.2401    17.0238    -0.3327 H       
 176 H176         -28.8703    15.0098     2.6430 H       
 177 H177         -28.0065    17.3777    -2.5026 H       
 178 H178         -26.0164    19.3736    -3.2665 H       
 179 H179         -26.2133    18.8566    -5.6907 H       
 180 H180         -25.3438    16.4207    -4.0740 H       
 181 H181         -24.7639    16.8946    -5.6888 H       
 182 H182         -24.3645    17.8939    -4.2710 H       
 183 H183         -28.2856    17.6752    -5.5674 H       
 184 H184         -27.1425    21.0043    -4.9127 H       
 185 H185         -30.0474    20.7302    -5.0313 H       
 186 H186         -28.6869    23.0198    -3.5427 H       
 187 H187         -30.4056    22.9952    -4.0048 H       
 188 H188         -30.7320    20.9243    -2.6805 H       
 189 H189         -29.0132    20.9490    -2.2185 H       
 190 H190         -29.3364    23.1553    -1.1340 H       
 191 H191         -31.0552    23.1307    -1.5961 H       
 192 H192         -30.4855    20.7659    -0.1610 H       
 193 H193         -31.0909    24.1326     1.9117 H       
 194 H194         -31.1021    20.6764     2.1373 H       
 195 H195         -31.3532    22.0986     2.9957 H       
 196 H196         -30.8708    23.0307    -6.1681 H       
 197 H197         -29.1905    23.2059    -8.5500 H       
 198 H198         -31.8508    24.5039    -7.8104 H       
 199 H199         -31.0488    24.6730    -9.3905 H       
 200 H200         -31.1248    22.2129    -9.6922 H       
 201 H201         -31.9267    22.0439    -8.1122 H       
 202 H202         -33.5126    21.0099   -10.0302 H       
 203 H203         -34.7108    22.0791   -10.5239 H       
 204 H204         -28.4765    26.7902    -8.2457 H       
 205 H205          21.7263     2.0800     0.7249 H       
 206 H206          21.3591     3.5382     1.6773 H       
 207 H207          21.8465     2.0371     2.5003 H       
 208 H208          19.7660     0.9350     1.7223 H       
 209 H209          19.3988     2.3932     2.6746 H       
 210 H210          19.1196     3.6908     0.5801 H       
 211 H211          19.4868     2.2326    -0.3723 H       
 212 H212          17.5265     1.0876     0.6251 H       
 213 H213          17.1593     2.5458     1.5774 H       
 214 H214          16.8801     3.8434    -0.5171 H       
 215 H215          17.2473     2.3851    -1.4694 H       
 216 H216          15.2870     1.2402    -0.4721 H       
 217 H217          14.9198     2.6984     0.4803 H       
 218 H218          14.6406     3.9960    -1.6142 H       
 219 H219          15.0078     2.5377    -2.5666 H       
 220 H220          13.0475     1.3928    -1.5692 H       
 221 H221          12.6803     2.8510    -0.6169 H       
 222 H222          12.4011     4.1486    -2.7114 H       
 223 H223          12.7683     2.6903    -3.6638 H       
 224 H224          10.8080     1.5454    -2.6664 H       
 225 H225          10.4408     3.0036    -1.7141 H       
 226 H226          10.1616     4.3012    -3.8086 H       
 227 H227          10.5288     2.8429    -4.7609 H       
 228 H228           8.5685     1.6979    -3.7636 H       
 229 H229           8.2013     3.1562    -2.8112 H       
 230 H230           7.9221     4.4538    -4.9058 H       
 231 H231           8.2893     2.9955    -5.8581 H       
 232 H232           6.3290     1.8505    -4.8607 H       
 233 H233           5.9618     3.3088    -3.9084 H       
 234 H234           6.0498     3.1481    -6.9553 H       
 235 H235           5.6826     4.6064    -6.0029 H       
@<TRIPOS>BOND
   1    1    2 2
   2    1    4 1
   3    1   14 am
   4    3    4 1
   5    3  115 1
   6    3  116 1
   7    4    5 1
   8    4  117 1
   9    5    6 1
  10    5  118 1
  11    5  119 1
  12    6    7 1
  13    6  120 1
  14    6  121 1
  15    7    8 1
  16    7  122 1
  17    7  123 1
  18    8    9 1
  19    8  124 1
  20    9   10 2
  21    9   11 1
  22   10  125 1
  23   11   98 am
  24   11  126 1
  25   12   13 2
  26   12   15 1
  27   12   23 am
  28   14   15 1
  29   14  127 1
  30   15   16 1
  31   15  128 1
  32   16   17 1
  33   16  129 1
  34   16  130 1
  35   17   18 1
  36   17  131 1
  37   17  132 1
  38   18   19 2
  39   18   20 1
  40   20  133 1
  41   21   22 2
  42   21   24 1
  43   21   30 am
  44   23   24 1
  45   23  134 1
  46   24   25 1
  47   24  135 1
  48   25   26 1
  49   25   27 1
  50   25  136 1
  51   26  137 1
  52   26  138 1
  53   26  139 1
  54   27  140 1
  55   28   29 2
  56   28   31 1
  57   28   38 am
  58   30   31 1
  59   30  141 1
  60   31   32 1
  61   31  142 1
  62   32   33 1
  63   32  143 1
  64   32  144 1
  65   33   34 2
  66   33   35 am
  67   35  145 1
  68   35  146 1
  69   36   37 2
  70   36   39 1
  71   36   43 am
  72   38   39 1
  73   38  147 1
  74   39   40 1
  75   39  148 1
  76   40  149 1
  77   40  150 1
  78   40  151 1
  79   41   42 2
  80   41   44 1
  81   41   47 am
  82   43   44 1
  83   43  152 1
  84   44  153 1
  85   44  154 1
  86   45   46 2
  87   45   48 1
  88   45   58 am
  89   47   48 1
  90   47  155 1
  91   48   49 1
  92   48  156 1
  93   49   50 1
  94   49  157 1
  95   49  158 1
  96   50   51 1
  97   50  159 1
  98   50  160 1
  99   51   52 1
 100   51  161 1
 101   51  162 1
 102   52   53 1
 103   52  163 1
 104   53   54 2
 105   53   55 1
 106   54  164 1
 107   55  165 1
 108   55  166 1
 109   56   57 2
 110   56   59 1
 111   56   64 am
 112   58   59 1
 113   58  167 1
 114   59   60 1
 115   59  168 1
 116   60   61 1
 117   60  169 1
 118   60  170 1
 119   61  171 1
 120   62   63 2
 121   62   65 1
 122   62   72 am
 123   64   65 1
 124   64  172 1
 125   65   66 1
 126   65  173 1
 127   66   67 1
 128   66  174 1
 129   66  175 1
 130   67   68 2
 131   67   69 1
 132   69  176 1
 133   70   71 2
 134   70   73 1
 135   70   79 am
 136   72   73 1
 137   72  177 1
 138   73   74 1
 139   73  178 1
 140   74   75 1
 141   74   76 1
 142   74  179 1
 143   75  180 1
 144   75  181 1
 145   75  182 1
 146   76  183 1
 147   77   78 2
 148   77   80 1
 149   77   90 am
 150   79   80 1
 151   79  184 1
 152   80   81 1
 153   80  185 1
 154   81   82 1
 155   81  186 1
 156   81  187 1
 157   82   83 1
 158   82  188 1
 159   82  189 1
 160   83   84 1
 161   83  190 1
 162   83  191 1
 163   84   85 1
 164   84  192 1
 165   85   86 2
 166   85   87 1
 167   86  193 1
 168   87  194 1
 169   87  195 1
 170   88   89 2
 171   88   91 1
 172   88   97 1
 173   90   91 1
 174   90  196 1
 175   91   92 1
 176   91  197 1
 177   92   93 1
 178   92  198 1
 179   92  199 1
 180   93   94 1
 181   93  200 1
 182   93  201 1
 183   94   95 2
 184   94   96 am
 185   96  202 1
 186   96  203 1
 187   97  204 1
 188   98   99 2
 189   98  114 1
 190  100  101 1
 191  100  205 1
 192  100  206 1
 193  100  207 1
 194  101  102 1
 195  101  208 1
 196  101  209 1
 197  102  103 1
 198  102  210 1
 199  102  211 1
 200  103  104 1
 201  103  212 1
 202  103  213 1
 203  104  105 1
 204  104  214 1
 205  104  215 1
 206  105  106 1
 207  105  216 1
 208  105  217 1
 209  106  107 1
 210  106  218 1
 211  106  219 1
 212  107  108 1
 213  107  220 1
 214  107  221 1
 215  108  109 1
 216  108  222 1
 217  108  223 1
 218  109  110 1
 219  109  224 1
 220  109  225 1
 221  110  111 1
 222  110  226 1
 223  110  227 1
 224  111  112 1
 225  111  228 1
 226  111  229 1
 227  112  113 1
 228  112  230 1
 229  112  231 1
 230  113  114 1
 231  113  232 1
 232  113  233 1
 233  114  234 1
 234  114  235 1

#	End of record

