#	Name: ASD04590959
#	Creating user name:	WinNT
#	Creation time:	15. 06. 2019 20:51

#	Modifying user name:	WinNT
#	Modification time:	15. 06. 2019 20:51

#	Program:	/corina/corina34_cracker 3.40 0067  02.08.2006

@<TRIPOS>MOLECULE
ASD04590959
  56   61    0    0    0
SMALL
NO_CHARGES


@<TRIPOS>ATOM
   1 N1            -0.0143     1.3219     0.0189 N.ar    
   2 C2             0.0027    -0.0051     0.0139 C.ar    
   3 N3             1.1302    -0.6980     0.0131 N.ar    
   4 C4             2.3061    -0.0773     0.0169 C.ar    
   5 C5             2.3218     1.3321     0.0218 C.ar    
   6 C6             1.1110     2.0173     0.0229 C.ar    
   7 N7             3.6037    -0.5256     0.0171 N.pl3   
   8 C8             4.4843     0.5424     0.0221 C.ar    
   9 C9             3.7347     1.7323     0.0251 C.ar    
  10 C10            5.8702     0.6330     0.0239 C.ar    
  11 N11            6.4650     1.8085     0.0284 N.ar    
  12 C12            5.7902     2.9445     0.0314 C.ar    
  13 C13            4.4115     2.9514     0.0299 C.ar    
  14 C14            4.0006    -1.9358     0.0136 C.3     
  15 C15            3.4456    -2.6428     1.2625 C.3     
  16 C16            2.5163    -3.7656     0.7570 C.3     
  17 C17            3.0236    -4.0620    -0.6762 C.3     
  18 C18            3.3893    -2.6538    -1.2074 C.3     
  19 N19           -1.2011    -0.6884     0.0098 N.pl3   
  20 C20           -2.4070     0.0157     0.1309 C.ar    
  21 C21           -3.5526    -0.4139    -0.5325 C.ar    
  22 N22           -4.6728     0.2759    -0.3948 N.ar    
  23 C23           -4.7122     1.3617     0.3623 C.ar    
  24 N24           -3.6421     1.8000     1.0078 N.ar    
  25 C25           -2.4888     1.1578     0.9221 C.ar    
  26 N26           -5.9052     2.0583     0.4821 N.3     
  27 C27           -5.7471     3.2265     1.3595 C.3     
  28 C28           -7.0607     4.0107     1.4020 C.3     
  29 N29           -8.1363     3.1340     1.8859 N.3     
  30 C30           -8.2943     1.9657     1.0084 C.3     
  31 C31           -6.9807     1.1815     0.9660 C.3     
  32 H32            1.0901     3.0971     0.0266 H       
  33 H33            6.4655    -0.2681     0.0220 H       
  34 H34            6.3267     3.8818     0.0355 H       
  35 H35            3.8659     3.8835     0.0319 H       
  36 H36            5.0873    -2.0176    -0.0098 H       
  37 H37            4.2628    -3.0683     1.8449 H       
  38 H38            2.8809    -1.9366     1.8713 H       
  39 H39            2.6107    -4.6509     1.3858 H       
  40 H40            1.4820    -3.4226     0.7323 H       
  41 H41            3.9032    -4.7052    -0.6493 H       
  42 H42            2.2345    -4.5099    -1.2803 H       
  43 H43            2.4959    -2.1312    -1.5494 H       
  44 H44            4.1207    -2.7277    -2.0121 H       
  45 H45           -1.2102    -1.6545    -0.0768 H       
  46 H46           -3.5271    -1.2983    -1.1518 H       
  47 H47           -1.6198     1.5206     1.4510 H       
  48 H48           -5.4895     2.8939     2.3651 H       
  49 H49           -4.9538     3.8666     0.9735 H       
  50 H50           -6.9547     4.8616     2.0750 H       
  51 H51           -7.3043     4.3666     0.4010 H       
  52 H52           -7.9697     2.8499     2.8396 H       
  53 H53           -9.0877     1.3257     1.3945 H       
  54 H54           -8.5519     2.2984     0.0029 H       
  55 H55           -7.0867     0.3306     0.2930 H       
  56 H56           -6.7371     0.8256     1.9670 H       
@<TRIPOS>BOND
   1    1    2 ar
   2    1    6 ar
   3    2    3 ar
   4    2   19 1
   5    3    4 ar
   6    4    5 ar
   7    4    7 1
   8    5    6 ar
   9    5    9 1
  10    6   32 1
  11    7    8 1
  12    7   14 1
  13    8    9 ar
  14    8   10 ar
  15    9   13 ar
  16   10   11 ar
  17   10   33 1
  18   11   12 ar
  19   12   13 ar
  20   12   34 1
  21   13   35 1
  22   14   15 1
  23   14   18 1
  24   14   36 1
  25   15   16 1
  26   15   37 1
  27   15   38 1
  28   16   17 1
  29   16   39 1
  30   16   40 1
  31   17   18 1
  32   17   41 1
  33   17   42 1
  34   18   43 1
  35   18   44 1
  36   19   20 1
  37   19   45 1
  38   20   21 ar
  39   20   25 ar
  40   21   22 ar
  41   21   46 1
  42   22   23 ar
  43   23   24 ar
  44   23   26 1
  45   24   25 ar
  46   25   47 1
  47   26   27 1
  48   26   31 1
  49   27   28 1
  50   27   48 1
  51   27   49 1
  52   28   29 1
  53   28   50 1
  54   28   51 1
  55   29   30 1
  56   29   52 1
  57   30   31 1
  58   30   53 1
  59   30   54 1
  60   31   55 1
  61   31   56 1

#	End of record

