#	Name: ASD01810678
#	Creating user name:	WinNT
#	Creation time:	15. 06. 2019 19:25

#	Modifying user name:	WinNT
#	Modification time:	15. 06. 2019 19:25

#	Program:	/corina/corina34_cracker 3.40 0067  02.08.2006

@<TRIPOS>MOLECULE
ASD01810678
  66   71    0    0    0
SMALL
NO_CHARGES


@<TRIPOS>ATOM
   1 C1            -0.1770     1.9876     0.5184 C.ar    
   2 C2             0.0705     0.6137     0.5326 C.ar    
   3 C3            -0.9733    -0.2806     0.3970 C.ar    
   4 C4            -2.2670     0.1767     0.2463 C.ar    
   5 C5            -2.5285     1.5488     0.2300 C.ar    
   6 C6            -1.4808     2.4560     0.3725 C.ar    
   7 C7            -3.9146     2.0372     0.0675 C.2     
   8 N8            -4.4470     2.8710     0.9827 N.am    
   9 O9            -4.5740     1.6866    -0.8916 O.2     
  10 C10           -5.8492     3.2979     0.8805 C.3     
  11 C11           -3.6380     3.3656     2.1051 C.3     
  12 C12           -4.3729     3.0614     3.4143 C.3     
  13 C13           -5.7848     3.6486     3.3504 C.3     
  14 C14           -6.5548     2.9947     2.2060 C.3     
  15 C15           -6.4992     3.3809     4.6500 C.ar    
  16 C16           -6.9556     4.4391     5.4157 C.ar    
  17 C17           -7.6108     4.2012     6.6061 C.ar    
  18 C18           -7.8128     2.8888     7.0379 C.ar    
  19 C19           -7.3495     1.8256     6.2602 C.ar    
  20 C20           -6.7006     2.0778     5.0693 C.ar    
  21 C21            0.9421     2.9439     0.6643 C.2     
  22 N22            2.1874     2.6157     0.9157 N.2     
  23 C23            2.9443     3.7250     0.9842 C.ar    
  24 C24            2.0954     4.8272     0.7563 C.ar    
  25 N25            0.8355     4.3030     0.5515 N.pl3   
  26 C26            4.3028     3.9757     1.2189 C.ar    
  27 C27            4.7442     5.2682     1.2169 C.ar    
  28 N28            3.9200     6.2795     0.9998 N.ar    
  29 C29            2.6330     6.1040     0.7728 C.ar    
  30 C30            1.4797     0.1052     0.6956 C.3     
  31 C31           -3.3996    -0.8063     0.0985 C.3     
  32 C32           -8.4917     2.6344     8.2728 C.1     
  33 N33           -9.0302     2.4325     9.2524 N.1     
  34 C34            1.7436     7.2964     0.5316 C.3     
  35 C35            1.7090     8.2940     1.7047 C.3     
  36 O36            1.8055     9.3151     0.6914 O.3     
  37 C37            2.4223     8.4279    -0.2633 C.3     
  38 H38           -0.7763    -1.3424     0.4086 H       
  39 H39           -1.6775     3.5179     0.3609 H       
  40 H40           -5.8915     4.3686     0.6806 H       
  41 H41           -6.3389     2.7537     0.0730 H       
  42 H42           -2.6692     2.8659     2.1053 H       
  43 H43           -3.4963     4.4419     2.0071 H       
  44 H44           -4.4338     1.9823     3.5552 H       
  45 H45           -3.8307     3.5076     4.2480 H       
  46 H46           -5.7235     4.7243     3.1848 H       
  47 H47           -7.5681     3.3949     2.1739 H       
  48 H48           -6.5937     1.9167     2.3630 H       
  49 H49           -6.7983     5.4537     5.0807 H       
  50 H50           -7.9662     5.0282     7.2029 H       
  51 H51           -7.5022     0.8081     6.5886 H       
  52 H52           -6.3418     1.2564     4.4668 H       
  53 H53            0.0256     4.8043     0.3677 H       
  54 H54            4.9888     3.1611     1.3985 H       
  55 H55            5.7899     5.4690     1.3970 H       
  56 H56            1.7336     0.0718     1.7551 H       
  57 H57            1.5560    -0.8962     0.2720 H       
  58 H58            2.1688     0.7723     0.1778 H       
  59 H59           -3.7389    -1.1207     1.0855 H       
  60 H60           -4.2239    -0.3335    -0.4354 H       
  61 H61           -3.0553    -1.6759    -0.4613 H       
  62 H62            0.7571     7.0232     0.1569 H       
  63 H63            0.7650     8.3014     2.2496 H       
  64 H64            2.5798     8.2372     2.3578 H       
  65 H65            3.5109     8.4119    -0.2111 H       
  66 H66            2.0440     8.5415    -1.2792 H       
@<TRIPOS>BOND
   1    1    2 ar
   2    1   21 1
   3    1    6 ar
   4    2    3 ar
   5    2   30 1
   6    3    4 ar
   7    3   38 1
   8    4    5 ar
   9    4   31 1
  10    5    6 ar
  11    5    7 1
  12    6   39 1
  13    7    8 am
  14    7    9 2
  15    8   10 1
  16    8   11 1
  17   10   14 1
  18   10   40 1
  19   10   41 1
  20   11   12 1
  21   11   42 1
  22   11   43 1
  23   12   13 1
  24   12   44 1
  25   12   45 1
  26   13   14 1
  27   13   15 1
  28   13   46 1
  29   14   47 1
  30   14   48 1
  31   15   16 ar
  32   15   20 ar
  33   16   17 ar
  34   16   49 1
  35   17   18 ar
  36   17   50 1
  37   18   19 ar
  38   18   32 1
  39   19   20 ar
  40   19   51 1
  41   20   52 1
  42   21   22 2
  43   21   25 1
  44   22   23 1
  45   23   24 ar
  46   23   26 ar
  47   24   25 1
  48   24   29 ar
  49   25   53 1
  50   26   27 ar
  51   26   54 1
  52   27   28 ar
  53   27   55 1
  54   28   29 ar
  55   29   34 1
  56   30   56 1
  57   30   57 1
  58   30   58 1
  59   31   59 1
  60   31   60 1
  61   31   61 1
  62   32   33 3
  63   34   35 1
  64   34   37 1
  65   34   62 1
  66   35   36 1
  67   35   63 1
  68   35   64 1
  69   36   37 1
  70   37   65 1
  71   37   66 1

#	End of record

