#	Name: ASD09890124
#	Creating user name:	WinNT
#	Creation time:	15. 06. 2019 21:24

#	Modifying user name:	WinNT
#	Modification time:	15. 06. 2019 21:24

#	Program:	/corina/corina34_cracker 3.40 0067  02.08.2006

@<TRIPOS>MOLECULE
ASD09890124
  72   76    0    0    0
SMALL
NO_CHARGES


@<TRIPOS>ATOM
   1 C1            -0.0187     1.5258     0.0104 C.3     
   2 C2             0.0021    -0.0041     0.0020 C.3     
   3 C3             0.7182    -0.4975    -1.2568 C.3     
   4 N4             0.7126    -0.4907     1.1921 N.3     
   5 C5             0.7524    -1.9595     1.2178 C.3     
   6 C6             1.5672    -2.4240     2.4273 C.3     
   7 N7             0.9597    -1.8949     3.6564 N.3     
   8 C8            -0.3827    -2.4544     3.8631 C.3     
   9 C9            -0.8805    -2.0826     5.2613 C.3     
  10 N10           -2.2229    -2.6421     5.4680 N.3     
  11 C11           -2.7341    -2.3045     6.8032 C.3     
  12 C12           -3.7704    -3.3465     7.2329 C.3     
  13 C13           -4.3435    -2.9564     8.5973 C.3     
  14 N14           -4.9657    -1.6293     8.5069 N.3     
  15 C15           -3.9797    -0.6043     8.1417 C.3     
  16 C16           -3.3957    -0.9242     6.7638 C.3     
  17 C17           -5.6140    -1.2981     9.6992 C.ar    
  18 C18           -5.6047    -2.1892    10.7664 C.ar    
  19 C19           -6.2451    -1.8662    11.9477 C.ar    
  20 C20           -6.8977    -0.6567    12.0760 C.ar    
  21 C21           -6.9125     0.2449    11.0107 C.ar    
  22 C22           -6.2620    -0.0785     9.8204 C.ar    
  23 C23           -7.6112     1.5415    11.1458 C.2     
  24 C24           -8.2704     1.9629    12.2533 C.2     
  25 C25           -8.8059     3.2894    11.9518 C.ar    
  26 C26           -9.5611     4.2157    12.6779 C.ar    
  27 C27           -9.9173     5.4114    12.0939 C.ar    
  28 F28          -10.6464     6.3094    12.7920 F       
  29 C29           -9.5299     5.6990    10.7899 C.ar    
  30 C30           -8.7863     4.7961    10.0624 C.ar    
  31 C31           -8.4149     3.5827    10.6319 C.ar    
  32 N32           -7.6868     2.5074    10.1692 N.pl3   
  33 C33            0.9198    -0.4261     3.6307 C.3     
  34 C34            0.1050     0.0384     2.4212 C.3     
  35 H35            1.0039     1.9031     0.0027 H       
  36 H36           -0.5459     1.8868    -0.8726 H       
  37 H37           -0.5289     1.8773     0.9072 H       
  38 H38           -1.0205    -0.3814     0.0098 H       
  39 H39            1.7408    -0.1202    -1.2645 H       
  40 H40            0.7330    -1.5874    -1.2628 H       
  41 H41            0.1910    -0.1364    -2.1398 H       
  42 H42           -0.2627    -2.3496     1.2917 H       
  43 H43            1.2178    -2.3267     0.3031 H       
  44 H44            0.0984     1.1277     2.3838 H       
  45 H45           -0.9174    -0.3290     2.5088 H       
  46 H46            1.5738    -3.5133     2.4647 H       
  47 H47            2.5897    -2.0566     2.3397 H       
  48 H48           -1.0644    -2.0494     3.1152 H       
  49 H49           -0.3427    -3.5396     3.7683 H       
  50 H50            0.4545    -0.0589     4.5454 H       
  51 H51            1.9350    -0.0360     3.5568 H       
  52 H52           -0.1989    -2.4877     6.0092 H       
  53 H53           -0.9206    -0.9975     5.3560 H       
  54 H54           -2.8586    -2.3322     4.7484 H       
  55 H55           -1.9102    -2.2943     7.5168 H       
  56 H56           -4.5745    -3.3847     6.4980 H       
  57 H57           -3.2950    -4.3248     7.3042 H       
  58 H58           -2.6526    -0.1718     6.4999 H       
  59 H59           -4.1939    -0.9243     6.0214 H       
  60 H60           -5.0921    -3.6887     8.8996 H       
  61 H61           -3.5411    -2.9318     9.3346 H       
  62 H62           -4.4640     0.3718     8.1132 H       
  63 H63           -3.1790    -0.5907     8.8812 H       
  64 H64           -5.0957    -3.1370    10.6718 H       
  65 H65           -6.2664     0.6171     8.9942 H       
  66 H66           -6.2351    -2.5626    12.7731 H       
  67 H67           -7.3973    -0.4081    13.0007 H       
  68 H68           -8.3797     1.4214    13.1813 H       
  69 H69           -7.2897     2.4407     9.2867 H       
  70 H70           -9.8636     3.9947    13.6909 H       
  71 H71           -9.8151     6.6398    10.3427 H       
  72 H72           -8.4918     5.0303     9.0501 H       
@<TRIPOS>BOND
   1    1    2 1
   2    1   35 1
   3    1   36 1
   4    1   37 1
   5    2    3 1
   6    2    4 1
   7    2   38 1
   8    3   39 1
   9    3   40 1
  10    3   41 1
  11    4    5 1
  12    4   34 1
  13    5    6 1
  14    5   42 1
  15    5   43 1
  16    6    7 1
  17    6   46 1
  18    6   47 1
  19    7    8 1
  20    7   33 1
  21    8    9 1
  22    8   48 1
  23    8   49 1
  24    9   10 1
  25    9   52 1
  26    9   53 1
  27   10   11 1
  28   10   54 1
  29   11   12 1
  30   11   16 1
  31   11   55 1
  32   12   13 1
  33   12   56 1
  34   12   57 1
  35   13   14 1
  36   13   60 1
  37   13   61 1
  38   14   15 1
  39   14   17 1
  40   15   16 1
  41   15   62 1
  42   15   63 1
  43   16   58 1
  44   16   59 1
  45   17   18 ar
  46   17   22 ar
  47   18   19 ar
  48   18   64 1
  49   19   20 ar
  50   19   66 1
  51   20   21 ar
  52   20   67 1
  53   21   22 ar
  54   21   23 1
  55   22   65 1
  56   23   24 2
  57   23   32 1
  58   24   25 1
  59   24   68 1
  60   25   26 ar
  61   25   31 ar
  62   26   27 ar
  63   26   70 1
  64   27   28 1
  65   27   29 ar
  66   29   30 ar
  67   29   71 1
  68   30   31 ar
  69   30   72 1
  70   31   32 1
  71   32   69 1
  72   33   34 1
  73   33   50 1
  74   33   51 1
  75   34   44 1
  76   34   45 1

#	End of record

