#	Name: ASD03091061
#	Creating user name:	WinNT
#	Creation time:	15. 06. 2019 20:30

#	Modifying user name:	WinNT
#	Modification time:	15. 06. 2019 20:30

#	Program:	/corina/corina34_cracker 3.40 0067  02.08.2006

@<TRIPOS>MOLECULE
ASD03091061
  58   60    0    0    0
SMALL
NO_CHARGES


@<TRIPOS>ATOM
   1 C1            -0.0405     1.4283    -0.5160 C.2     
   2 C2            -0.0088    -0.0265    -0.2534 C.ar    
   3 C3             1.2136    -0.6874    -0.1185 C.ar    
   4 C4             1.2406    -2.0450     0.1266 C.ar    
   5 C5             0.0601    -2.7555     0.2399 C.ar    
   6 C6            -1.1620    -2.1070     0.1073 C.ar    
   7 C7            -1.1999    -0.7419    -0.1339 C.ar    
   8 O8             0.5261     1.8823    -1.4909 O.2     
   9 N9            -0.7022     2.2502     0.3224 N.am    
  10 N10            2.4807     0.0682    -0.2389 N.pl3   
  11 O11            3.5445    -0.5248    -0.2523 O.2     
  12 O12            2.4595     1.2830    -0.3246 O.2     
  13 N13           -2.3523    -2.8295     0.2222 N.pl3   
  14 C14           -3.6232    -6.2329     1.2964 C.3     
  15 C15           -3.6144    -4.7016     1.1635 C.3     
  16 C16           -2.3123    -4.2706     0.4824 C.3     
  17 C17           -2.1477    -5.0229    -0.8412 C.3     
  18 C18           -2.2559    -6.5324    -0.5724 C.3     
  19 C19           -1.3516    -6.8634     0.6371 C.3     
  20 C20           -2.2551    -6.6655     1.8720 C.3     
  21 N21           -3.6346    -6.7948    -0.0804 N.3     
  22 C22           -3.9206    -8.2355    -0.0588 C.3     
  23 C23           -0.7335     3.6915     0.0622 C.3     
  24 C24           -1.5322     4.3792     1.1394 C.2     
  25 O25           -2.0265     3.7293     2.0361 O.2     
  26 N26           -1.6971     5.7164     1.1062 N.am    
  27 C27           -2.4736     6.3849     2.1533 C.3     
  28 C28           -1.5692     6.6735     3.3532 C.3     
  29 C29           -3.0357     7.7002     1.6103 C.3     
  30 H30            2.1873    -2.5545     0.2299 H       
  31 H31            0.0876    -3.8179     0.4318 H       
  32 H32           -2.1485    -0.2353    -0.2332 H       
  33 H33           -1.1576     1.8874     1.0982 H       
  34 H34           -3.2052    -2.3769     0.1296 H       
  35 H35           -4.4564    -6.5875     1.9033 H       
  36 H36           -4.4646    -4.3825     0.5607 H       
  37 H37           -3.6759    -4.2489     2.1531 H       
  38 H38           -1.4693    -4.4979     1.1350 H       
  39 H39           -2.9320    -4.7183    -1.5342 H       
  40 H40           -1.1713    -4.7976    -1.2703 H       
  41 H41           -2.0021    -7.1252    -1.4512 H       
  42 H42           -1.0062    -7.8958     0.5813 H       
  43 H43           -0.5031    -6.1802     0.6745 H       
  44 H44           -1.8508    -5.8850     2.5166 H       
  45 H45           -2.3540    -7.6006     2.4234 H       
  46 H46           -4.8965    -8.4054     0.3961 H       
  47 H47           -3.9229    -8.6208    -1.0784 H       
  48 H48           -3.1546    -8.7493     0.5220 H       
  49 H49            0.2840     4.0824     0.0589 H       
  50 H50           -1.1967     3.8757    -0.9071 H       
  51 H51           -1.3018     6.2362     0.3890 H       
  52 H52           -3.2951     5.7396     2.4645 H       
  53 H53           -0.7476     7.3188     3.0420 H       
  54 H54           -2.1468     7.1709     4.1323 H       
  55 H55           -1.1687     5.7365     3.7400 H       
  56 H56           -3.6800     7.4946     0.7555 H       
  57 H57           -3.6134     8.1976     2.3894 H       
  58 H58           -2.2142     8.3455     1.2992 H       
@<TRIPOS>BOND
   1    1    2 1
   2    1    8 2
   3    1    9 am
   4    2    3 ar
   5    2    7 ar
   6    3    4 ar
   7    3   10 1
   8    4    5 ar
   9    4   30 1
  10    5    6 ar
  11    5   31 1
  12    6    7 ar
  13    6   13 1
  14    7   32 1
  15    9   23 1
  16    9   33 1
  17   10   11 2
  18   10   12 2
  19   13   16 1
  20   13   34 1
  21   14   15 1
  22   14   20 1
  23   14   21 1
  24   14   35 1
  25   15   16 1
  26   15   36 1
  27   15   37 1
  28   16   17 1
  29   16   38 1
  30   17   18 1
  31   17   39 1
  32   17   40 1
  33   18   19 1
  34   18   21 1
  35   18   41 1
  36   19   20 1
  37   19   42 1
  38   19   43 1
  39   20   44 1
  40   20   45 1
  41   21   22 1
  42   22   46 1
  43   22   47 1
  44   22   48 1
  45   23   24 1
  46   23   49 1
  47   23   50 1
  48   24   25 2
  49   24   26 am
  50   26   27 1
  51   26   51 1
  52   27   28 1
  53   27   29 1
  54   27   52 1
  55   28   53 1
  56   28   54 1
  57   28   55 1
  58   29   56 1
  59   29   57 1
  60   29   58 1

#	End of record

