#	Name: ASD04010002
#	Creating user name:	WinNT
#	Creation time:	15. 06. 2019 20:48

#	Modifying user name:	WinNT
#	Modification time:	15. 06. 2019 20:48

#	Program:	/corina/corina34_cracker 3.40 0067  02.08.2006

@<TRIPOS>MOLECULE
ASD04010002
  29   31    0    0    0
SMALL
NO_CHARGES


@<TRIPOS>ATOM
   1 Cl1            5.2008     2.3540     0.3720 Cl      
   2 C2             0.2563     1.5052    -0.7490 C.2     
   3 C3             0.2328     0.0734    -0.7356 C.1     
   4 N4             0.2141    -1.0624    -0.7249 N.1     
   5 C5             1.3687     2.3211    -0.5050 C.2     
   6 N6             0.9382     3.6096    -0.6205 N.am    
   7 C7             1.7851     4.6491    -0.4403 C.2     
   8 O8             1.4059     5.7918    -0.5417 O.2     
   9 C9             3.2278     4.3258    -0.1057 C.3     
  10 C10            3.5647     4.9878     1.2319 C.3     
  11 C11            3.5356     6.4861     1.0723 C.ar    
  12 C12            2.4043     7.1970     1.4266 C.ar    
  13 C13            2.3776     8.5713     1.2801 C.ar    
  14 C14            3.4823     9.2347     0.7798 C.ar    
  15 C15            4.6140     8.5238     0.4264 C.ar    
  16 C16            4.6423     7.1500     0.5769 C.ar    
  17 C17            3.5823     2.8559    -0.0052 C.2     
  18 N18            2.6473     1.9844    -0.2082 N.2     
  19 N19           -0.4283     3.5928    -0.9332 N.2     
  20 C20           -0.8358     2.3590    -1.0167 C.2     
  21 H21            3.8612     4.7743    -0.8711 H       
  22 H22            2.8316     4.6879     1.9806 H       
  23 H23            4.5590     4.6757     1.5516 H       
  24 H24            1.5412     6.6787     1.8175 H       
  25 H25            1.4934     9.1267     1.5563 H       
  26 H26            3.4612    10.3084     0.6647 H       
  27 H27            5.4770     9.0421     0.0352 H       
  28 H28            5.5277     6.5950     0.3043 H       
  29 H29           -1.8417     2.0418    -1.2489 H       
@<TRIPOS>BOND
   1    1   17 1
   2    2    3 1
   3    2    5 2
   4    2   20 1
   5    3    4 3
   6    5    6 1
   7    5   18 1
   8    6    7 am
   9    6   19 1
  10    7    8 2
  11    7    9 1
  12    9   10 1
  13    9   17 1
  14    9   21 1
  15   10   11 1
  16   10   22 1
  17   10   23 1
  18   11   12 ar
  19   11   16 ar
  20   12   13 ar
  21   12   24 1
  22   13   14 ar
  23   13   25 1
  24   14   15 ar
  25   14   26 1
  26   15   16 ar
  27   15   27 1
  28   16   28 1
  29   17   18 2
  30   19   20 2
  31   20   29 1

#	End of record

