#	Name: ASD01815435
#	Creating user name:	WinNT
#	Creation time:	15. 06. 2019 19:33

#	Modifying user name:	WinNT
#	Modification time:	15. 06. 2019 19:33

#	Program:	/corina/corina34_cracker 3.40 0067  02.08.2006

@<TRIPOS>MOLECULE
ASD01815435
  43   46    0    0    0
SMALL
NO_CHARGES


@<TRIPOS>ATOM
   1 C1            -0.0168     1.3834    -0.0442 C.ar    
   2 C2             0.0020    -0.0038    -0.0513 C.ar    
   3 C3             1.1976    -0.6920    -0.0482 C.ar    
   4 C4             2.4035     0.0084    -0.0382 C.ar    
   5 C5             2.3796     1.4130    -0.0315 C.ar    
   6 C6             1.1627     2.0947    -0.0344 C.ar    
   7 N7             3.6056    -0.6668    -0.0344 N.pl3   
   8 C8             4.7891    -0.0410    -0.0241 C.2     
   9 C9             4.8932     1.3356    -0.0168 C.2     
  10 C10            3.6619     2.1417    -0.0210 C.2     
  11 O11            3.7001     3.3596    -0.0153 O.2     
  12 C12            6.2116     1.9852    -0.0050 C.2     
  13 O13            7.2221     1.3095    -0.0016 O.2     
  14 O14            6.3002     3.3303     0.0020 O.3     
  15 F15            1.2003    -2.0430    -0.0543 F       
  16 C16            3.5871    -2.1316    -0.0416 C.3     
  17 C17            3.4443    -2.6253    -1.4583 C.ar    
  18 N18            4.5316    -2.8484    -2.1695 N.ar    
  19 C19            4.4516    -3.2817    -3.4158 C.ar    
  20 C20            3.1905    -3.5024    -3.9756 C.ar    
  21 C21            2.0654    -3.2527    -3.1854 C.ar    
  22 N22            2.2360    -2.8256    -1.9460 N.ar    
  23 C23            3.0499    -3.9878    -5.3702 C.ar    
  24 C24            3.7353    -3.3544    -6.4037 C.ar    
  25 C25            3.6012    -3.8098    -7.7000 C.ar    
  26 C26            2.7875    -4.8939    -7.9768 C.ar    
  27 C27            2.1023    -5.5297    -6.9585 C.ar    
  28 C28            2.2330    -5.0872    -5.6522 C.ar    
  29 O29            1.5602    -5.7112    -4.6506 O.3     
  30 H30           -0.9608     1.9081    -0.0510 H       
  31 H31           -0.9293    -0.5507    -0.0591 H       
  32 H32            1.1453     3.1745    -0.0296 H       
  33 H33            5.6925    -0.6328    -0.0209 H       
  34 H34            7.1887     3.7117     0.0096 H       
  35 H35            4.5176    -2.5088     0.3825 H       
  36 H36            2.7460    -2.4873     0.5536 H       
  37 H37            5.3469    -3.4620    -3.9924 H       
  38 H38            1.0723    -3.4100    -3.5796 H       
  39 H39            4.3709    -2.5074    -6.1914 H       
  40 H40            4.1332    -3.3179    -8.5009 H       
  41 H41            2.6868    -5.2447    -8.9933 H       
  42 H42            1.4682    -6.3752    -7.1808 H       
  43 H43            2.0482    -6.4399    -4.2433 H       
@<TRIPOS>BOND
   1    1    2 ar
   2    1    6 ar
   3    1   30 1
   4    2    3 ar
   5    2   31 1
   6    3    4 ar
   7    3   15 1
   8    4    5 ar
   9    4    7 1
  10    5    6 ar
  11    5   10 1
  12    6   32 1
  13    7    8 1
  14    7   16 1
  15    8    9 2
  16    8   33 1
  17    9   10 1
  18    9   12 1
  19   10   11 2
  20   12   13 2
  21   12   14 1
  22   14   34 1
  23   16   17 1
  24   16   35 1
  25   16   36 1
  26   17   18 ar
  27   17   22 ar
  28   18   19 ar
  29   19   20 ar
  30   19   37 1
  31   20   21 ar
  32   20   23 1
  33   21   22 ar
  34   21   38 1
  35   23   24 ar
  36   23   28 ar
  37   24   25 ar
  38   24   39 1
  39   25   26 ar
  40   25   40 1
  41   26   27 ar
  42   26   41 1
  43   27   28 ar
  44   27   42 1
  45   28   29 1
  46   29   43 1

#	End of record

