#	Name: ASD01028340
#	Creating user name:	WinNT
#	Creation time:	15. 06. 2019 18:57

#	Modifying user name:	WinNT
#	Modification time:	15. 06. 2019 18:57

#	Program:	/corina/corina34_cracker 3.40 0067  02.08.2006

@<TRIPOS>MOLECULE
ASD01028340
  41   45    0    0    0
SMALL
NO_CHARGES


@<TRIPOS>ATOM
   1 C1            -0.0171     1.4124     0.0098 C.ar    
   2 C2             0.0021    -0.0041     0.0020 C.ar    
   3 C3             1.2200     2.0975     0.0017 C.ar    
   4 N4             2.3327     1.3802    -0.0128 N.ar    
   5 C5             2.3030     0.0564    -0.0197 C.ar    
   6 N6             1.1867    -0.6320    -0.0127 N.ar    
   7 O7             1.2652     3.4495     0.0081 O.3     
   8 C8             2.5594     4.0554    -0.0010 C.3     
   9 C9             2.4120     5.5552     0.0080 C.2     
  10 N10            2.3443     6.3431     1.1033 N.pl3   
  11 C11            2.2141     7.6299     0.6373 C.2     
  12 N12            2.2095     7.5600    -0.6838 N.2     
  13 N13            2.3322     6.3303    -1.0447 N.2     
  14 N14            2.3799     6.0962     2.4772 N.2     
  15 C15            2.2898     7.0882     3.3353 C.2     
  16 C16            2.1550     8.4198     2.8882 C.2     
  17 C17            2.1181     8.6914     1.5570 C.2     
  18 C18            2.3298     6.8042     4.7909 C.ar    
  19 C19           -1.2109    -0.7065     0.0104 C.ar    
  20 C20            2.4622     5.4931     5.2442 C.ar    
  21 C21            2.4993     5.2347     6.5995 C.ar    
  22 C22            2.4054     6.2742     7.5072 C.ar    
  23 C23            2.2739     7.5775     7.0628 C.ar    
  24 C24            2.2409     7.8480     5.7098 C.ar    
  25 C25           -2.3871    -0.0180     0.0258 C.ar    
  26 C26           -2.4040     1.3743     0.0329 C.ar    
  27 C27           -1.2428     2.0888     0.0309 C.ar    
  28 H28            3.2400    -0.4805    -0.0320 H       
  29 H29            3.1146     3.7396     0.8823 H       
  30 H30            3.0979     3.7486    -0.8976 H       
  31 H31            2.0813     9.2243     3.6050 H       
  32 H32            2.0150     9.7087     1.2092 H       
  33 H33           -1.2135    -1.7865     0.0043 H       
  34 H34            2.5353     4.6807     4.5364 H       
  35 H35            2.6016     4.2190     6.9519 H       
  36 H36            2.4346     6.0675     8.5668 H       
  37 H37            2.2006     8.3853     7.7759 H       
  38 H38            2.1382     8.8660     5.3640 H       
  39 H39           -3.3207    -0.5610     0.0322 H       
  40 H40           -3.3499     1.8953     0.0444 H       
  41 H41           -1.2683     3.1685     0.0365 H       
@<TRIPOS>BOND
   1    1    2 ar
   2    1    3 ar
   3    1   27 ar
   4    2   19 ar
   5    2    6 ar
   6    3    4 ar
   7    3    7 1
   8    4    5 ar
   9    5    6 ar
  10    5   28 1
  11    7    8 1
  12    8    9 1
  13    8   29 1
  14    8   30 1
  15    9   10 1
  16    9   13 2
  17   10   11 1
  18   10   14 1
  19   11   12 2
  20   11   17 1
  21   12   13 1
  22   14   15 2
  23   15   16 1
  24   15   18 1
  25   16   17 2
  26   16   31 1
  27   17   32 1
  28   18   20 ar
  29   18   24 ar
  30   19   25 ar
  31   19   33 1
  32   20   21 ar
  33   20   34 1
  34   21   22 ar
  35   21   35 1
  36   22   23 ar
  37   22   36 1
  38   23   24 ar
  39   23   37 1
  40   24   38 1
  41   25   26 ar
  42   25   39 1
  43   26   27 ar
  44   26   40 1
  45   27   41 1

#	End of record

