#	Name: ASD01881824
#	Creating user name:	WinNT
#	Creation time:	15. 06. 2019 19:43

#	Modifying user name:	WinNT
#	Modification time:	15. 06. 2019 19:43

#	Program:	/corina/corina34_cracker 3.40 0067  02.08.2006

@<TRIPOS>MOLECULE
ASD01881824
  37   39    0    0    0
SMALL
NO_CHARGES


@<TRIPOS>ATOM
   1 C1            -0.0184     1.5028     0.0103 C.2     
   2 C2             0.0021    -0.0041     0.0020 C.3     
   3 O3             1.0197     2.1211     0.0037 O.2     
   4 O4            -1.1898     2.1580     0.0194 O.3     
   5 C5            -1.1335     3.6089     0.0270 C.3     
   6 C6            -2.5551     4.1744     0.0369 C.3     
   7 O7            -3.2024     3.8148     1.2590 O.3     
   8 N8            -8.3583     5.4123     2.1908 N.pl3   
   9 N9            -8.4779     4.8184     3.4559 N.2     
  10 N10           -7.3771     4.2241     3.7556 N.2     
  11 C11           -6.4802     4.3691     2.7599 C.ar    
  12 C12           -7.0877     5.1283     1.7447 C.ar    
  13 C13           -5.1611     3.9274     2.5878 C.ar    
  14 C14           -4.4821     4.2423     1.4289 C.ar    
  15 C15           -5.0976     4.9951     0.4318 C.ar    
  16 C16           -6.3825     5.4337     0.5861 C.ar    
  17 C17           -9.3858     6.1786     1.4813 C.3     
  18 C18           -9.2629     7.6587     1.8488 C.3     
  19 C19          -10.1757     8.6461     1.1188 C.3     
  20 C20          -10.4380     8.3034     2.5867 C.3     
  21 Br21          -4.3172     2.9050     3.9363 Br      
  22 H22            0.0168    -0.3729     1.0276 H       
  23 H23           -0.8878    -0.3767    -0.5053 H       
  24 H24            0.8920    -0.3525    -0.5222 H       
  25 H25           -0.6017     3.9472     0.9164 H       
  26 H26           -0.6102     3.9569    -0.8636 H       
  27 H27           -2.5147     5.2605    -0.0470 H       
  28 H28           -3.1146     3.7656    -0.8045 H       
  29 H29           -4.5546     5.2349    -0.4704 H       
  30 H30           -6.8509     6.0171    -0.1928 H       
  31 H31           -9.2509     6.0588     0.4063 H       
  32 H32          -10.3726     5.8142     1.7665 H       
  33 H33           -8.2594     7.9973     2.1068 H       
  34 H34           -9.7729     9.6343     0.8969 H       
  35 H35          -10.8638     8.2411     0.3767 H       
  36 H36          -11.2986     7.6730     2.8103 H       
  37 H37          -10.2078     9.0662     3.3305 H       
@<TRIPOS>BOND
   1    1    2 1
   2    1    3 2
   3    1    4 1
   4    2   22 1
   5    2   23 1
   6    2   24 1
   7    4    5 1
   8    5    6 1
   9    5   25 1
  10    5   26 1
  11    6    7 1
  12    6   27 1
  13    6   28 1
  14    7   14 1
  15    8    9 1
  16    8   12 1
  17    8   17 1
  18    9   10 2
  19   10   11 1
  20   11   12 ar
  21   11   13 ar
  22   12   16 ar
  23   13   14 ar
  24   13   21 1
  25   14   15 ar
  26   15   16 ar
  27   15   29 1
  28   16   30 1
  29   17   18 1
  30   17   31 1
  31   17   32 1
  32   18   19 1
  33   18   20 1
  34   18   33 1
  35   19   20 1
  36   19   34 1
  37   19   35 1
  38   20   36 1
  39   20   37 1

#	End of record

