#	Name: ASD01883267
#	Creating user name:	WinNT
#	Creation time:	15. 06. 2019 19:46

#	Modifying user name:	WinNT
#	Modification time:	15. 06. 2019 19:46

#	Program:	/corina/corina34_cracker 3.40 0067  02.08.2006

@<TRIPOS>MOLECULE
ASD01883267
  57   59    0    0    0
SMALL
NO_CHARGES


@<TRIPOS>ATOM
   1 N1            -0.0162     1.3417     0.0094 N.am    
   2 C2             0.0021    -0.0041     0.0020 C.2     
   3 C3            -1.2159    -0.7274     0.0102 C.2     
   4 C4            -2.4262    -0.0109     0.0261 C.2     
   5 C5            -2.3786     1.3974     0.0332 C.2     
   6 C6            -1.1851     2.0327     0.0299 C.2     
   7 O7             1.0657    -0.6000    -0.0122 O.2     
   8 C8            -1.2149    -2.1593     0.0021 C.1     
   9 N9            -1.2142    -3.2953    -0.0044 N.1     
  10 C10            1.2513     2.0763     0.0013 C.3     
  11 C11            1.6788     2.3398    -1.4440 C.3     
  12 C12            3.0025     3.1070    -1.4525 C.3     
  13 C13            4.1050     2.2284    -0.8581 C.3     
  14 C14            3.3670     3.4792    -2.8911 C.3     
  15 C15           -3.7215    -0.7207     0.0347 C.ar    
  16 C16           -4.5704    -0.6152     1.1398 C.ar    
  17 C17           -5.7770    -1.2779     1.1448 C.ar    
  18 C18           -6.1515    -2.0529     0.0510 C.ar    
  19 C19           -5.3080    -2.1603    -1.0509 C.ar    
  20 C20           -4.1031    -1.4946    -1.0647 C.ar    
  21 N21           -7.3720    -2.7222     0.0593 N.3     
  22 C22           -7.5670    -3.4765    -1.1855 C.3     
  23 C23           -8.9739    -4.0784    -1.2037 C.3     
  24 C24           -9.1448    -5.0011     0.0063 C.3     
  25 C25           -8.8890    -4.2025     1.2874 C.3     
  26 C26           -7.4845    -3.5970     1.2334 C.3     
  27 O27          -10.4754    -5.5217     0.0257 O.3     
  28 C28          -10.5835    -6.8187     0.6156 C.3     
  29 H29           -3.2949     1.9689     0.0450 H       
  30 H30           -1.1610     3.1124     0.0354 H       
  31 H31            1.1243     3.0257     0.5214 H       
  32 H32            2.0168     1.4857     0.5046 H       
  33 H33            1.8057     1.3903    -1.9642 H       
  34 H34            0.9133     2.9303    -1.9474 H       
  35 H35            2.9004     4.0143    -0.8572 H       
  36 H36            4.2071     1.3210    -1.4534 H       
  37 H37            5.0481     2.7749    -0.8642 H       
  38 H38            3.8454     1.9632     0.1668 H       
  39 H39            2.5815     4.1051    -3.3146 H       
  40 H40            4.3100     4.0258    -2.8972 H       
  41 H41            3.4691     2.5719    -3.4864 H       
  42 H42           -4.2801    -0.0146     1.9891 H       
  43 H43           -6.4335    -1.1968     1.9985 H       
  44 H44           -5.6012    -2.7627    -1.8980 H       
  45 H45           -3.4492    -1.5781    -1.9201 H       
  46 H46           -7.4469    -2.8079    -2.0379 H       
  47 H47           -6.8290    -4.2765    -1.2448 H       
  48 H48           -9.7127    -3.2782    -1.1583 H       
  49 H49           -9.1129    -4.6512    -2.1206 H       
  50 H50           -8.4320    -5.8231    -0.0590 H       
  51 H51           -9.6264    -3.4042     1.3720 H       
  52 H52           -8.9672    -4.8639     2.1503 H       
  53 H53           -6.7469    -4.3964     1.1628 H       
  54 H54           -7.3045    -3.0158     2.1378 H       
  55 H55           -9.9701    -7.5247     0.0558 H       
  56 H56          -10.2390    -6.7778     1.6489 H       
  57 H57          -11.6239    -7.1430     0.5920 H       
@<TRIPOS>BOND
   1    1    2 am
   2    1   10 1
   3    1    6 1
   4    2    3 1
   5    2    7 2
   6    3    4 2
   7    3    8 1
   8    4    5 1
   9    4   15 1
  10    5    6 2
  11    5   29 1
  12    6   30 1
  13    8    9 3
  14   10   11 1
  15   10   31 1
  16   10   32 1
  17   11   12 1
  18   11   33 1
  19   11   34 1
  20   12   13 1
  21   12   14 1
  22   12   35 1
  23   13   36 1
  24   13   37 1
  25   13   38 1
  26   14   39 1
  27   14   40 1
  28   14   41 1
  29   15   16 ar
  30   15   20 ar
  31   16   17 ar
  32   16   42 1
  33   17   18 ar
  34   17   43 1
  35   18   19 ar
  36   18   21 1
  37   19   20 ar
  38   19   44 1
  39   20   45 1
  40   21   22 1
  41   21   26 1
  42   22   23 1
  43   22   46 1
  44   22   47 1
  45   23   24 1
  46   23   48 1
  47   23   49 1
  48   24   25 1
  49   24   27 1
  50   24   50 1
  51   25   26 1
  52   25   51 1
  53   25   52 1
  54   26   53 1
  55   26   54 1
  56   27   28 1
  57   28   55 1
  58   28   56 1
  59   28   57 1

#	End of record

