#	Name: ASD01730062
#	Creating user name:	WinNT
#	Creation time:	15. 06. 2019 19:23

#	Modifying user name:	WinNT
#	Modification time:	15. 06. 2019 19:23

#	Program:	/corina/corina34_cracker 3.40 0067  02.08.2006

@<TRIPOS>MOLECULE
ASD01730062
  31   31    0    0    0
SMALL
NO_CHARGES


@<TRIPOS>ATOM
   1 C1             0.5016     2.5131     1.1719 C.2     
   2 C2             1.1743     2.1312     2.4652 C.3     
   3 N3             1.0578     2.2055     0.0307 N.2     
   4 N4            -0.6905     3.1748     1.1929 N.pl3   
   5 S5             3.8015     2.5158    -0.1883 S.3     
   6 C6             2.2926     1.6354     0.0077 C.2     
   7 N7             2.5236     0.3688     0.1276 N.2     
   8 C8             3.8052    -0.0432     0.0852 C.ar    
   9 C9             4.7102     1.0095    -0.0884 C.ar    
  10 C10            4.3130    -1.3559     0.1922 C.ar    
  11 C11            5.6633    -1.5875     0.1270 C.ar    
  12 C12            6.5544    -0.5329    -0.0454 C.ar    
  13 C13            6.0785     0.7597    -0.1544 C.ar    
  14 O14            7.8912    -0.7739    -0.1073 O.3     
  15 C15            8.3112    -2.1346     0.0119 C.3     
  16 F16            7.7449    -2.8897    -1.0207 F       
  17 F17            9.7061    -2.2011    -0.0727 F       
  18 F18            7.8940    -2.6450     1.2458 F       
  19 C19           -1.3444     3.5461    -0.0643 C.3     
  20 H20            1.9073     2.8924     2.7321 H       
  21 H21            0.4267     2.0540     3.2546 H       
  22 H22            1.6755     1.1708     2.3443 H       
  23 H23           -1.1055     3.3997     2.0403 H       
  24 H24            3.6331    -2.1842     0.3266 H       
  25 H25            6.0381    -2.5970     0.2106 H       
  26 H26            6.7697     1.5786    -0.2886 H       
  27 H27           -1.5524     2.6474    -0.6450 H       
  28 H28           -2.2792     4.0637     0.1514 H       
  29 H29           -0.6884     4.2036    -0.6348 H       
  30 Cl30          14.7061     9.2036     8.2546 Cl      
  31 H31           14.7061    10.5736     8.2546 H       
@<TRIPOS>BOND
   1    1    2 1
   2    1    3 2
   3    1    4 1
   4    2   20 1
   5    2   21 1
   6    2   22 1
   7    3    6 1
   8    4   19 1
   9    4   23 1
  10    5    6 1
  11    5    9 1
  12    6    7 2
  13    7    8 1
  14    8    9 ar
  15    8   10 ar
  16    9   13 ar
  17   10   11 ar
  18   10   24 1
  19   11   12 ar
  20   11   25 1
  21   12   13 ar
  22   12   14 1
  23   13   26 1
  24   14   15 1
  25   15   16 1
  26   15   17 1
  27   15   18 1
  28   19   27 1
  29   19   28 1
  30   19   29 1
  31   30   31 1

#	End of record

