#	Name: ASD01912503
#	Creating user name:	WinNT
#	Creation time:	15. 06. 2019 19:59

#	Modifying user name:	WinNT
#	Modification time:	15. 06. 2019 19:59

#	Program:	/corina/corina34_cracker 3.40 0067  02.08.2006

@<TRIPOS>MOLECULE
ASD01912503
  41   44    0    0    0
SMALL
NO_CHARGES


@<TRIPOS>ATOM
   1 C1             0.5288     1.3998    -0.8963 C.2     
   2 O2             0.8069     0.2109    -1.4401 O.3     
   3 N3             1.9633     0.1812    -1.8049 N.2     
   4 C4             2.5464     1.3219    -1.5430 C.2     
   5 N5             1.6238     2.1161    -0.9546 N.2     
   6 C6             3.9571     1.6780    -1.8363 C.ar    
   7 C7             4.7985     0.7530    -2.4504 C.ar    
   8 C8             6.1095     1.0896    -2.7212 C.ar    
   9 C9             6.5883     2.3423    -2.3837 C.ar    
  10 C10            5.7572     3.2648    -1.7736 C.ar    
  11 C11            4.4432     2.9408    -1.5035 C.ar    
  12 C12           -0.7973     1.8364    -0.3289 C.3     
  13 C13           -1.3417     0.9012     0.7661 C.3     
  14 C14           -2.0513     0.1456    -0.3721 C.3     
  15 N15           -1.9584     1.4071    -1.1323 N.am    
  16 C16           -2.6545     1.9494    -2.1511 C.2     
  17 C17           -3.7746     1.2036    -2.7597 C.ar    
  18 O18           -2.3603     3.0524    -2.5691 O.2     
  19 C19           -4.5911     1.8176    -3.7144 C.ar    
  20 C20           -5.6377     1.1115    -4.2795 C.ar    
  21 C21           -5.8757    -0.1965    -3.9020 C.ar    
  22 C22           -5.0702    -0.8092    -2.9571 C.ar    
  23 C23           -4.0201    -0.1203    -2.3887 C.ar    
  24 F24           -4.3589     3.0963    -4.0832 F       
  25 C25            7.0209     0.0899    -3.3855 C.3     
  26 H26            4.4258    -0.2259    -2.7137 H       
  27 H27            7.6149     2.6013    -2.5967 H       
  28 H28            6.1363     4.2416    -1.5118 H       
  29 H29            3.7951     3.6618    -1.0275 H       
  30 H30           -0.8161     2.8912    -0.0550 H       
  31 H31           -0.5704     0.3163     1.2671 H       
  32 H32           -2.0247     1.3899     1.4610 H       
  33 H33           -1.4605    -0.6668    -0.7953 H       
  34 H34           -3.0731    -0.1494    -0.1335 H       
  35 H35           -6.2702     1.5833    -5.0169 H       
  36 H36           -6.6943    -0.7433    -4.3460 H       
  37 H37           -5.2627    -1.8317    -2.6673 H       
  38 H38           -3.3934    -0.6007    -1.6519 H       
  39 H39            6.9587     0.2047    -4.4677 H       
  40 H40            8.0469     0.2615    -3.0602 H       
  41 H41            6.7160    -0.9194    -3.1091 H       
@<TRIPOS>BOND
   1    1    2 1
   2    1    5 2
   3    1   12 1
   4    2    3 1
   5    3    4 2
   6    4    5 1
   7    4    6 1
   8    6    7 ar
   9    6   11 ar
  10    7    8 ar
  11    7   26 1
  12    8    9 ar
  13    8   25 1
  14    9   10 ar
  15    9   27 1
  16   10   11 ar
  17   10   28 1
  18   11   29 1
  19   12   13 1
  20   12   15 1
  21   12   30 1
  22   13   14 1
  23   13   31 1
  24   13   32 1
  25   14   15 1
  26   14   33 1
  27   14   34 1
  28   15   16 am
  29   16   17 1
  30   16   18 2
  31   17   19 ar
  32   17   23 ar
  33   19   20 ar
  34   19   24 1
  35   20   21 ar
  36   20   35 1
  37   21   22 ar
  38   21   36 1
  39   22   23 ar
  40   22   37 1
  41   23   38 1
  42   25   39 1
  43   25   40 1
  44   25   41 1

#	End of record

