#	Name: ASD03920002
#	Creating user name:	WinNT
#	Creation time:	15. 06. 2019 20:47

#	Modifying user name:	WinNT
#	Modification time:	15. 06. 2019 20:47

#	Program:	/corina/corina34_cracker 3.40 0067  02.08.2006

@<TRIPOS>MOLECULE
ASD03920002
  65   69    0    0    0
SMALL
NO_CHARGES


@<TRIPOS>ATOM
   1 C1            -0.0168     1.3868     0.0097 C.ar    
   2 C2             0.0021    -0.0041     0.0020 C.ar    
   3 C3             1.2215    -0.6786    -0.0132 C.ar    
   4 C4             2.4158     0.0453    -0.0208 C.ar    
   5 C5             2.3888     1.4252    -0.0131 C.ar    
   6 C6             1.1822     2.0981     0.0020 C.ar    
   7 C7            -1.3113     2.1124     0.0197 C.ar    
   8 C8            -1.3319     3.5058     0.0274 C.ar    
   9 C9            -2.5385     4.1754     0.0363 C.ar    
  10 C10           -3.7262     3.4660     0.0380 C.ar    
  11 C11           -3.7116     2.0831     0.0304 C.ar    
  12 C12           -2.5103     1.4032     0.0157 C.ar    
  13 C13            1.2507    -2.1569    -0.0210 C.2     
  14 O14            0.2103    -2.7854    -0.0140 O.2     
  15 N15            2.4310    -2.8075    -0.0357 N.am    
  16 C16            2.4600    -4.2722    -0.0434 C.3     
  17 C17            3.7711    -4.7531    -0.6682 C.3     
  18 C18            4.9504    -4.2240     0.1504 C.3     
  19 C19            4.8488    -4.7436     1.5858 C.3     
  20 C20            3.5376    -4.2627     2.2107 C.3     
  21 C21            2.3583    -4.7918     1.3921 C.3     
  22 N22            5.9780    -4.2369     2.3697 N.pl3   
  23 N23            7.1909    -4.8974     2.6115 N.2     
  24 N24            7.9305    -4.1344     3.3387 N.2     
  25 C25            7.2754    -2.9902     3.5997 C.2     
  26 C26            6.0530    -3.0435     2.9923 C.2     
  27 C27            7.7910    -1.8651     4.4025 C.2     
  28 O28            7.1056    -0.8753     4.5729 O.2     
  29 N29            9.0219    -1.9343     4.9472 N.am    
  30 C30            9.6567    -0.8908     5.7655 C.3     
  31 C31           11.0644    -1.3979     6.1433 C.3     
  32 C32           11.3587    -2.4554     5.0468 C.3     
  33 C33            9.9522    -3.0715     4.8264 C.3     
  34 C34           -2.5624     5.6822     0.0446 C.3     
  35 H35           -0.9245    -0.5589     0.0082 H       
  36 H36            3.3619    -0.4754    -0.0322 H       
  37 H37            3.3146     1.9812    -0.0186 H       
  38 H38            1.1679     3.1780     0.0080 H       
  39 H39           -0.4053     4.0605     0.0268 H       
  40 H40           -4.6683     3.9941     0.0457 H       
  41 H41           -4.6417     1.5343     0.0322 H       
  42 H42           -2.5001     0.3233     0.0052 H       
  43 H43            3.2612    -2.3060    -0.0413 H       
  44 H44            1.6198    -4.6492    -0.6266 H       
  45 H45            3.7927    -5.8429    -0.6739 H       
  46 H46            3.8435    -4.3829    -1.6909 H       
  47 H47            5.8846    -4.5666    -0.2948 H       
  48 H48            4.9289    -3.1342     0.1561 H       
  49 H49            4.8704    -5.8334     1.5801 H       
  50 H50            3.4652    -4.6329     3.2333 H       
  51 H51            3.5161    -3.1729     2.2164 H       
  52 H52            1.4242    -4.4492     1.8372 H       
  53 H53            2.3799    -5.8816     1.3864 H       
  54 H54            5.2920    -2.2774     3.0091 H       
  55 H55            9.7369     0.0326     5.1918 H       
  56 H56            9.0699    -0.7191     6.6679 H       
  57 H57           11.7908    -0.5863     6.1013 H       
  58 H58           11.0561    -1.8586     7.1311 H       
  59 H59           11.7287    -1.9824     4.1371 H       
  60 H60           12.0606    -3.2073     5.4075 H       
  61 H61            9.7389    -3.8190     5.5905 H       
  62 H62            9.8838    -3.5137     3.8324 H       
  63 H63           -2.5726     6.0511    -0.9811 H       
  64 H64           -3.4558     6.0286     0.5642 H       
  65 H65           -1.6761     6.0568     0.5566 H       
@<TRIPOS>BOND
   1    1    2 ar
   2    1    6 ar
   3    1    7 1
   4    2    3 ar
   5    2   35 1
   6    3    4 ar
   7    3   13 1
   8    4    5 ar
   9    4   36 1
  10    5    6 ar
  11    5   37 1
  12    6   38 1
  13    7    8 ar
  14    7   12 ar
  15    8    9 ar
  16    8   39 1
  17    9   10 ar
  18    9   34 1
  19   10   11 ar
  20   10   40 1
  21   11   12 ar
  22   11   41 1
  23   12   42 1
  24   13   14 2
  25   13   15 am
  26   15   16 1
  27   15   43 1
  28   16   17 1
  29   16   21 1
  30   16   44 1
  31   17   18 1
  32   17   45 1
  33   17   46 1
  34   18   19 1
  35   18   47 1
  36   18   48 1
  37   19   20 1
  38   19   22 1
  39   19   49 1
  40   20   21 1
  41   20   50 1
  42   20   51 1
  43   21   52 1
  44   21   53 1
  45   22   23 1
  46   22   26 1
  47   23   24 2
  48   24   25 1
  49   25   26 2
  50   25   27 1
  51   26   54 1
  52   27   28 2
  53   27   29 am
  54   29   30 1
  55   29   33 1
  56   30   31 1
  57   30   55 1
  58   30   56 1
  59   31   32 1
  60   31   57 1
  61   31   58 1
  62   32   33 1
  63   32   59 1
  64   32   60 1
  65   33   61 1
  66   33   62 1
  67   34   63 1
  68   34   64 1
  69   34   65 1

#	End of record

