#	Name: ASD01478051
#	Creating user name:	WinNT
#	Creation time:	15. 06. 2019 19:21

#	Modifying user name:	WinNT
#	Modification time:	15. 06. 2019 19:21

#	Program:	/corina/corina34_cracker 3.40 0067  02.08.2006

@<TRIPOS>MOLECULE
ASD01478051
  55   56    0    0    0
SMALL
NO_CHARGES


@<TRIPOS>ATOM
   1 C1            -0.2770     1.0010     1.7998 C.3     
   2 C2             0.5821     1.7701     0.7942 C.3     
   3 C3             0.3517     1.2067    -0.6095 C.3     
   4 C4             1.1713     2.0091    -1.6220 C.3     
   5 C5             1.0105     1.3914    -3.0125 C.3     
   6 O6            -0.0054    -0.3974     1.6870 O.3     
   7 O7             1.7760     2.1409    -3.9582 O.3     
   8 O8             1.9612     1.6324     1.1423 O.3     
   9 Si9            2.5133     2.7987     2.1399 Si      
  10 C10            1.2356     3.1476     3.4571 C.ar    
  11 C11            1.5162     2.8721     4.7824 C.ar    
  12 C12            0.5706     3.1302     5.7572 C.ar    
  13 C13           -0.6553     3.6642     5.4068 C.ar    
  14 C14           -0.9355     3.9406     4.0817 C.ar    
  15 C15            0.0116     3.6865     3.1074 C.ar    
  16 C16            4.0993     2.2293     2.9460 C.ar    
  17 C17            4.0543     1.3859     4.0403 C.ar    
  18 C18            5.2279     0.9645     4.6369 C.ar    
  19 C19            6.4466     1.3862     4.1389 C.ar    
  20 C20            6.4916     2.2289     3.0440 C.ar    
  21 C21            5.3180     2.6468     2.4448 C.ar    
  22 C22            2.8364     4.3509     1.1616 C.3     
  23 C23            1.5045     4.9729     0.7372 C.3     
  24 C24            3.6117     5.3468     2.0265 C.3     
  25 C25            3.6584     4.0079    -0.0824 C.3     
  26 H26           -0.0419     1.3364     2.8100 H       
  27 H27           -1.3312     1.1843     1.5922 H       
  28 H28            0.3064     2.8245     0.8123 H       
  29 H29            0.6620     0.1621    -0.6372 H       
  30 H30           -0.7066     1.2781    -0.8605 H       
  31 H31            0.8184     3.0403    -1.6395 H       
  32 H32            2.2228     1.9898    -1.3353 H       
  33 H33            1.3634     0.3602    -2.9950 H       
  34 H34           -0.0409     1.4107    -3.2992 H       
  35 H35           -0.5161    -0.9477     2.2964 H       
  36 H36            1.7209     1.8050    -4.8633 H       
  37 H37            2.4740     2.4549     5.0561 H       
  38 H38            0.7896     2.9143     6.7925 H       
  39 H39           -1.3943     3.8652     6.1683 H       
  40 H40           -1.8935     4.3575     3.8079 H       
  41 H41           -0.2060     3.9058     2.0725 H       
  42 H42            3.1022     1.0564     4.4294 H       
  43 H43            5.1928     0.3061     5.4923 H       
  44 H44            7.3635     1.0576     4.6054 H       
  45 H45            7.4436     2.5587     2.6551 H       
  46 H46            5.3532     3.3022     1.5871 H       
  47 H47            0.8833     5.1371     1.6177 H       
  48 H48            1.6900     5.9253     0.2407 H       
  49 H49            0.9912     4.2992     0.0510 H       
  50 H50            4.5339     4.8830     2.3765 H       
  51 H51            3.8511     6.2313     1.4363 H       
  52 H52            3.0024     5.6355     2.8830 H       
  53 H53            3.0531     3.4111    -0.7647 H       
  54 H54            3.9661     4.9278    -0.5796 H       
  55 H55            4.5416     3.4404     0.2108 H       
@<TRIPOS>BOND
   1    1    6 1
   2    1    2 1
   3    1   26 1
   4    1   27 1
   5    2    3 1
   6    2    8 1
   7    2   28 1
   8    3    4 1
   9    3   29 1
  10    3   30 1
  11    4    5 1
  12    4   31 1
  13    4   32 1
  14    5    7 1
  15    5   33 1
  16    5   34 1
  17    6   35 1
  18    7   36 1
  19    8    9 1
  20    9   10 1
  21    9   16 1
  22    9   22 1
  23   10   11 ar
  24   10   15 ar
  25   11   12 ar
  26   11   37 1
  27   12   13 ar
  28   12   38 1
  29   13   14 ar
  30   13   39 1
  31   14   15 ar
  32   14   40 1
  33   15   41 1
  34   16   17 ar
  35   16   21 ar
  36   17   18 ar
  37   17   42 1
  38   18   19 ar
  39   18   43 1
  40   19   20 ar
  41   19   44 1
  42   20   21 ar
  43   20   45 1
  44   21   46 1
  45   22   23 1
  46   22   25 1
  47   22   24 1
  48   23   47 1
  49   23   48 1
  50   23   49 1
  51   24   50 1
  52   24   51 1
  53   24   52 1
  54   25   53 1
  55   25   54 1
  56   25   55 1

#	End of record

