#	Name: ASD05430077
#	Creating user name:	WinNT
#	Creation time:	15. 06. 2019 20:59

#	Modifying user name:	WinNT
#	Modification time:	15. 06. 2019 20:59

#	Program:	/corina/corina34_cracker 3.40 0067  02.08.2006

@<TRIPOS>MOLECULE
ASD05430077
  74   80    0    0    0
SMALL
NO_CHARGES


@<TRIPOS>ATOM
   1 C1             0.1059     1.0442     0.5244 C.ar    
   2 C2             0.0328    -0.0166    -0.3487 C.ar    
   3 C3             1.1472    -0.3783    -1.1028 C.ar    
   4 C4             2.3106     0.3438    -0.9547 C.ar    
   5 C5             2.3757     1.4221    -0.0780 C.ar    
   6 C6             1.2488     1.8120     0.6889 C.ar    
   7 C7             4.8628     0.0030     0.0567 C.3     
   8 C8             4.8127     1.5151     0.0553 C.2     
   9 C9             3.6356     2.1712     0.0552 C.2     
  10 C10            6.2214    -0.4613     0.5897 C.3     
  11 C11            6.9194     0.4883     1.5699 C.3     
  12 N12            7.0917     1.7898     0.9207 N.pl3   
  13 C13            6.0885     2.2470     0.0545 C.2     
  14 N14           -1.1634    -0.7342    -0.4794 N.pl3   
  15 C15           -1.3269    -2.0845    -0.3064 C.2     
  16 C16           -2.6283    -2.3512    -0.5269 C.2     
  17 N17           -3.2470    -1.1994    -0.8266 N.2     
  18 C18           -2.3816    -0.2228    -0.7957 C.2     
  19 C19           -3.2774    -3.7090    -0.4502 C.3     
  20 C20            0.0627     2.8975     2.6953 C.3     
  21 Si21          -1.1402     1.7934     1.7312 Si      
  22 C22            8.2630     2.6271     1.1789 C.3     
  23 C23            8.7149     3.2656    -0.1393 C.3     
  24 N24            7.5577     3.8569    -0.8154 N.pl3   
  25 N25            6.2976     3.2537    -0.7355 N.2     
  26 C26            7.9037     3.7075     2.1662 C.ar    
  27 C27            8.8584     4.6248     2.5640 C.ar    
  28 C28            6.6182     3.7839     2.6691 C.ar    
  29 C29            6.2874     4.7747     3.5738 C.ar    
  30 C30            7.2441     5.6909     3.9770 C.ar    
  31 C31            8.5300     5.6163     3.4690 C.ar    
  32 F32            6.9217     6.6599     4.8615 F       
  33 C33            9.3937     1.7662     1.7457 C.3     
  34 C34            6.4126    -1.9632     0.8131 C.3     
  35 C35            7.1106    -1.2690    -0.3581 C.3     
  36 C36            1.1853     2.9860     1.6323 C.3     
  37 C37           -2.4379     2.7961     0.8474 C.3     
  38 C38           -1.9083     0.4940     2.8232 C.3     
  39 H39            1.0998    -1.2097    -1.7905 H       
  40 H40            3.1845     0.0690    -1.5266 H       
  41 H41            4.0696    -0.3863     0.6950 H       
  42 H42            4.7256    -0.3662    -0.9597 H       
  43 H43            3.6167     3.2466     0.1529 H       
  44 H44            6.3079     0.6042     2.4648 H       
  45 H45            7.8943     0.0828     1.8404 H       
  46 H46           -0.5592    -2.7975    -0.0442 H       
  47 H47           -2.5965     0.8166    -0.9954 H       
  48 H48           -3.6339    -3.8845     0.5647 H       
  49 H49           -4.1182    -3.7494    -1.1427 H       
  50 H50           -2.5497    -4.4753    -0.7173 H       
  51 H51           -0.3700     3.8758     2.9048 H       
  52 H52            0.4105     2.4122     3.6072 H       
  53 H53            9.4516     4.0421     0.0666 H       
  54 H54            9.1592     2.5031    -0.7790 H       
  55 H55            7.6661     4.6757    -1.3241 H       
  56 H56            9.8613     4.5664     2.1677 H       
  57 H57            5.8722     3.0692     2.3545 H       
  58 H58            5.2829     4.8347     3.9660 H       
  59 H59            9.2771     6.3301     3.7831 H       
  60 H60            9.6547     0.9898     1.0266 H       
  61 H61           10.2655     2.3918     1.9375 H       
  62 H62            9.0665     1.3038     2.6770 H       
  63 H63            7.0309    -2.2720     1.6560 H       
  64 H64            5.5720    -2.6175     0.5819 H       
  65 H65            6.7292    -1.4667    -1.3599 H       
  66 H66            8.1881    -1.1212    -0.2858 H       
  67 H67            2.1425     3.0675     2.1472 H       
  68 H68            1.0356     3.8926     1.0459 H       
  69 H69           -1.9559     3.4746     0.1436 H       
  70 H70           -3.1078     2.1275     0.3067 H       
  71 H71           -3.0093     3.3728     1.5747 H       
  72 H72           -2.5297     0.9751     3.5785 H       
  73 H73           -2.5228    -0.1724     2.2178 H       
  74 H74           -1.1219    -0.0810     3.3120 H       
@<TRIPOS>BOND
   1    1    2 ar
   2    1    6 ar
   3    1   21 1
   4    2    3 ar
   5    2   14 1
   6    3    4 ar
   7    3   39 1
   8    4    5 ar
   9    4   40 1
  10    5    6 ar
  11    5    9 1
  12    6   36 1
  13    7    8 1
  14    7   10 1
  15    7   41 1
  16    7   42 1
  17    8    9 2
  18    8   13 1
  19    9   43 1
  20   10   11 1
  21   10   34 1
  22   10   35 1
  23   11   12 1
  24   11   44 1
  25   11   45 1
  26   12   13 1
  27   12   22 1
  28   13   25 2
  29   14   15 1
  30   14   18 1
  31   15   16 2
  32   15   46 1
  33   16   17 1
  34   16   19 1
  35   17   18 2
  36   18   47 1
  37   19   48 1
  38   19   49 1
  39   19   50 1
  40   20   21 1
  41   20   36 1
  42   20   51 1
  43   20   52 1
  44   21   37 1
  45   21   38 1
  46   22   23 1
  47   22   26 1
  48   22   33 1
  49   23   24 1
  50   23   53 1
  51   23   54 1
  52   24   25 1
  53   24   55 1
  54   26   27 ar
  55   26   28 ar
  56   27   31 ar
  57   27   56 1
  58   28   29 ar
  59   28   57 1
  60   29   30 ar
  61   29   58 1
  62   30   31 ar
  63   30   32 1
  64   31   59 1
  65   33   60 1
  66   33   61 1
  67   33   62 1
  68   34   35 1
  69   34   63 1
  70   34   64 1
  71   35   65 1
  72   35   66 1
  73   36   67 1
  74   36   68 1
  75   37   69 1
  76   37   70 1
  77   37   71 1
  78   38   72 1
  79   38   73 1
  80   38   74 1

#	End of record

