#	Name: ASD07300609
#	Creating user name:	WinNT
#	Creation time:	15. 06. 2019 21:10

#	Modifying user name:	WinNT
#	Modification time:	15. 06. 2019 21:10

#	Program:	/corina/corina34_cracker 3.40 0067  02.08.2006

@<TRIPOS>MOLECULE
ASD07300609
  48   51    0    0    0
SMALL
NO_CHARGES


@<TRIPOS>ATOM
   1 C1            -0.0171     1.4133     0.0098 C.2     
   2 C2             0.0021    -0.0041     0.0020 C.2     
   3 N3             1.1774     2.0869     0.0020 N.pl3   
   4 N4             1.1568    -0.6390    -0.0124 N.2     
   5 C5             2.3154     0.0276    -0.0199 C.2     
   6 C6             2.3479     1.3755    -0.0126 C.2     
   7 N7            -0.9987     2.3008     0.0292 N.2     
   8 C8            -0.4884     3.5283     0.0281 C.2     
   9 C9             0.8863     3.4240     0.0120 C.2     
  10 N10           -1.1861    -0.7177     0.0100 N.pl3   
  11 C11           -1.3056    -2.1830     0.0033 C.3     
  12 C12           -2.8116    -2.5198    -0.0098 C.3     
  13 C13           -3.4518    -1.2271    -0.5810 C.3     
  14 C14           -2.5393    -0.1331     0.0330 C.3     
  15 C15           -1.2766     4.8126     0.0459 C.3     
  16 C16            2.9717     4.5118     0.8481 C.ar    
  17 C17            1.8563     4.5388     0.0087 C.ar    
  18 C18            1.6728     5.6397    -0.8364 C.ar    
  19 C19            2.6104     6.6569    -0.8013 C.ar    
  20 C20            3.6885     6.5547     0.0591 C.ar    
  21 N21            3.8362     5.5051     0.8447 N.ar    
  22 C22            4.7117     7.6604     0.0995 C.3     
  23 C23            4.8594     8.1664     1.5359 C.3     
  24 O24            5.8296     9.2148     1.5742 O.3     
  25 C25            6.0445     9.7605     2.8773 C.3     
  26 H26            3.2437    -0.5243    -0.0314 H       
  27 H27            3.2955     1.8935    -0.0186 H       
  28 H28           -0.8270    -2.5899    -0.8874 H       
  29 H29           -0.8410    -2.5969     0.8982 H       
  30 H30           -3.0110    -3.3698    -0.6625 H       
  31 H31           -3.1720    -2.7149     1.0002 H       
  32 H32           -3.4033    -1.2152    -1.6699 H       
  33 H33           -4.4797    -1.1148    -0.2361 H       
  34 H34           -2.8410     0.0848     1.0575 H       
  35 H35           -2.5720     0.7719    -0.5736 H       
  36 H36           -1.4515     5.1173     1.0777 H       
  37 H37           -0.7158     5.5903    -0.4725 H       
  38 H38           -2.2326     4.6591    -0.4546 H       
  39 H39            3.1244     3.6713     1.5089 H       
  40 H40            0.8216     5.6936    -1.4989 H       
  41 H41            2.5016     7.5214    -1.4394 H       
  42 H42            5.6710     7.2808    -0.2524 H       
  43 H43            4.3873     8.4793    -0.5426 H       
  44 H44            3.9001     8.5460     1.8878 H       
  45 H45            5.1838     7.3475     2.1780 H       
  46 H46            5.1099    10.1732     3.2571 H       
  47 H47            6.3935     8.9747     3.5473 H       
  48 H48            6.7941    10.5498     2.8216 H       
@<TRIPOS>BOND
   1    1    2 1
   2    1    3 1
   3    1    7 2
   4    2    4 2
   5    2   10 1
   6    3    6 1
   7    3    9 1
   8    4    5 1
   9    5    6 2
  10    5   26 1
  11    6   27 1
  12    7    8 1
  13    8    9 2
  14    8   15 1
  15    9   17 1
  16   10   11 1
  17   10   14 1
  18   11   12 1
  19   11   28 1
  20   11   29 1
  21   12   13 1
  22   12   30 1
  23   12   31 1
  24   13   14 1
  25   13   32 1
  26   13   33 1
  27   14   34 1
  28   14   35 1
  29   15   36 1
  30   15   37 1
  31   15   38 1
  32   16   17 ar
  33   16   21 ar
  34   16   39 1
  35   17   18 ar
  36   18   19 ar
  37   18   40 1
  38   19   20 ar
  39   19   41 1
  40   20   21 ar
  41   20   22 1
  42   22   23 1
  43   22   42 1
  44   22   43 1
  45   23   24 1
  46   23   44 1
  47   23   45 1
  48   24   25 1
  49   25   46 1
  50   25   47 1
  51   25   48 1

#	End of record

