#	Name: ASD00069309
#	Creating user name:	WinNT
#	Creation time:	15. 06. 2019 18:29

#	Modifying user name:	WinNT
#	Modification time:	15. 06. 2019 18:29

#	Program:	/corina/corina34_cracker 3.40 0067  02.08.2006

@<TRIPOS>MOLECULE
ASD00069309
  56   58    0    0    0
SMALL
NO_CHARGES


@<TRIPOS>ATOM
   1 C1            -0.0788     1.6611    -0.1296 C.3     
   2 N2            -0.1427     0.1945    -0.1931 N.am    
   3 C3             0.6138    -0.5002    -1.2438 C.3     
   4 C4             2.0763    -0.0491    -1.1795 C.3     
   5 C5             2.1393     1.4778    -1.2657 C.3     
   6 C6             1.3907     2.0886    -0.0800 C.3     
   7 C7             1.4804     3.6148    -0.1475 C.3     
   8 C8             0.7794     4.2165     1.0728 C.3     
   9 N9             1.4190     3.7224     2.2989 N.3     
  10 C10            1.3024     2.2628     2.4085 C.3     
  11 C11            2.0190     1.6026     1.2282 C.3     
  12 C12           -0.8806    -0.5001     0.6955 C.2     
  13 O13           -1.5013     0.0864     1.5599 O.2     
  14 O14           -0.9299    -1.8437     0.6253 O.3     
  15 C15            0.8904     4.3537     3.4293 C.ar    
  16 C16           -0.4484     4.1777     3.7641 C.ar    
  17 C17           -0.9667     4.8032     4.8826 C.ar    
  18 C18           -0.1555     5.6032     5.6672 C.ar    
  19 C19            1.1750     5.7794     5.3364 C.ar    
  20 C20            1.7015     5.1527     4.2230 C.ar    
  21 N21            3.1278     5.3383     3.8737 N.pl3   
  22 O22            3.8136     6.1195     4.5084 O.2     
  23 O23            3.6157     4.7098     2.9515 O.2     
  24 F24           -1.2407     3.3972     2.9972 F       
  25 C25           -1.7446    -2.5260     1.6148 C.3     
  26 C26           -3.1951    -2.0545     1.4941 C.3     
  27 C27           -1.6776    -4.0359     1.3772 C.3     
  28 C28           -1.2194    -2.2064     3.0159 C.3     
  29 H29           -0.5533     2.0862    -1.0141 H       
  30 H30           -0.5915     2.0108     0.7664 H       
  31 H31            0.5563    -1.5770    -1.0842 H       
  32 H32            0.1971    -0.2508    -2.2196 H       
  33 H33            2.5177    -0.3788    -0.2390 H       
  34 H34            2.6281    -0.4836    -2.0130 H       
  35 H35            3.1803     1.8001    -1.2429 H       
  36 H36            1.6774     1.8083    -2.1960 H       
  37 H37            2.5274     3.9180    -0.1521 H       
  38 H38            0.9946     3.9680    -1.0571 H       
  39 H39            0.8552     5.3032     1.0361 H       
  40 H40           -0.2710     3.9254     1.0685 H       
  41 H41            1.7579     1.9311     3.3416 H       
  42 H42            0.2496     1.9807     2.3981 H       
  43 H43            1.9176     0.5197     1.3004 H       
  44 H44            3.0751     1.8719     1.2469 H       
  45 H45           -2.0058     4.6676     5.1438 H       
  46 H46           -0.5628     6.0914     6.5402 H       
  47 H47            1.8051     6.4047     5.9515 H       
  48 H48           -3.5692    -2.2821     0.4960 H       
  49 H49           -3.8066    -2.5666     2.2369 H       
  50 H50           -3.2428    -0.9788     1.6634 H       
  51 H51           -0.6443    -4.3718     1.4632 H       
  52 H52           -2.2892    -4.5481     2.1200 H       
  53 H53           -2.0518    -4.2635     0.3790 H       
  54 H54           -1.2671    -1.1307     3.1852 H       
  55 H55           -1.8309    -2.7186     3.7587 H       
  56 H56           -0.1860    -2.5423     3.1019 H       
@<TRIPOS>BOND
   1    1    2 1
   2    1    6 1
   3    1   29 1
   4    1   30 1
   5    2    3 1
   6    2   12 am
   7    3    4 1
   8    3   31 1
   9    3   32 1
  10    4    5 1
  11    4   33 1
  12    4   34 1
  13    5    6 1
  14    5   35 1
  15    5   36 1
  16    6    7 1
  17    6   11 1
  18    7    8 1
  19    7   37 1
  20    7   38 1
  21    8    9 1
  22    8   39 1
  23    8   40 1
  24    9   10 1
  25    9   15 1
  26   10   11 1
  27   10   41 1
  28   10   42 1
  29   11   43 1
  30   11   44 1
  31   12   13 2
  32   12   14 1
  33   14   25 1
  34   15   16 ar
  35   15   20 ar
  36   16   17 ar
  37   16   24 1
  38   17   18 ar
  39   17   45 1
  40   18   19 ar
  41   18   46 1
  42   19   20 ar
  43   19   47 1
  44   20   21 1
  45   21   22 2
  46   21   23 2
  47   25   26 1
  48   25   28 1
  49   25   27 1
  50   26   48 1
  51   26   49 1
  52   26   50 1
  53   27   51 1
  54   27   52 1
  55   27   53 1
  56   28   54 1
  57   28   55 1
  58   28   56 1

#	End of record

