#	Name: ASD01815892
#	Creating user name:	WinNT
#	Creation time:	15. 06. 2019 19:34

#	Modifying user name:	WinNT
#	Modification time:	15. 06. 2019 19:34

#	Program:	/corina/corina34_cracker 3.40 0067  02.08.2006

@<TRIPOS>MOLECULE
ASD01815892
  61   67    0    0    0
SMALL
NO_CHARGES


@<TRIPOS>ATOM
   1 C1             0.2881     0.9981     0.1559 C.ar    
   2 C2             0.3564    -0.3788     0.2918 C.ar    
   3 C3             1.5779    -1.0222     0.3342 C.ar    
   4 C4             2.7570    -0.2877     0.2406 C.ar    
   5 C5             2.6847     1.1079     0.1028 C.ar    
   6 C6             1.4466     1.7455     0.0609 C.ar    
   7 N7             3.9849    -0.9271     0.2833 N.pl3   
   8 C8             5.1534    -0.2717     0.1982 C.2     
   9 C9             5.2072     1.0932     0.0613 C.2     
  10 C10            3.9458     1.8667     0.0053 C.2     
  11 C11            6.2691     2.0878    -0.0558 C.2     
  12 N12            5.6533     3.2847    -0.1651 N.am    
  13 N13            4.2662     3.1222    -0.1255 N.2     
  14 C14            6.3100     4.5113    -0.2986 C.ar    
  15 O15            7.4714     1.8796    -0.0549 O.2     
  16 C16            4.0096    -2.3846     0.4286 C.3     
  17 C17            4.0481    -3.0248    -0.9352 C.ar    
  18 C18            5.2540    -3.1667    -1.5970 C.ar    
  19 C19            5.2924    -3.7526    -2.8472 C.ar    
  20 C20            4.1188    -4.1996    -3.4391 C.ar    
  21 C21            2.9097    -4.0562    -2.7719 C.ar    
  22 C22            2.8783    -3.4742    -1.5197 C.ar    
  23 N23            4.1545    -4.7942    -4.7081 N.pl3   
  24 C24            3.0908    -5.2701    -5.3942 C.2     
  25 F25            1.3789     3.0883    -0.0721 F       
  26 F26            1.6285    -2.3657     0.4671 F       
  27 C27            3.5457    -5.7611    -6.5703 C.2     
  28 C28            4.9327    -5.5799    -6.6051 C.2     
  29 N29            5.2976    -4.9952    -5.4925 N.2     
  30 C30            6.0703     5.5404     0.6193 C.ar    
  31 C31            7.2067     4.7119    -1.3385 C.ar    
  32 C32            7.6147     6.9458    -0.5654 C.ar    
  33 C33            6.7299     6.7588     0.4771 C.ar    
  34 C34            5.1182     5.3345     1.7375 C.ar    
  35 C35            7.8549     5.9246    -1.4685 C.ar    
  36 C36            5.2951     4.2703     2.6200 C.ar    
  37 C37            4.4059     4.0836     3.6587 C.ar    
  38 C38            3.3407     4.9502     3.8250 C.ar    
  39 C39            3.1601     6.0081     2.9522 C.ar    
  40 C40            4.0463     6.2079     1.9133 C.ar    
  41 H41           -0.6735     1.4884     0.1196 H       
  42 H42           -0.5542    -0.9547     0.3657 H       
  43 H43            6.0752    -0.8329     0.2388 H       
  44 H44            4.8946    -2.6786     0.9930 H       
  45 H45            3.1152    -2.7122     0.9586 H       
  46 H46            6.1665    -2.8187    -1.1360 H       
  47 H47            6.2344    -3.8625    -3.3639 H       
  48 H48            1.9951    -4.4026    -3.2301 H       
  49 H49            1.9381    -3.3623    -1.0002 H       
  50 H50            2.0630    -5.2606    -5.0628 H       
  51 H51            2.9444    -6.2131    -7.3452 H       
  52 H52            5.5887    -5.8686    -7.4131 H       
  53 H53            7.3981     3.9191    -2.0465 H       
  54 H54            8.1254     7.8912    -0.6743 H       
  55 H55            6.5452     7.5585     1.1792 H       
  56 H56            8.5524     6.0769    -2.2789 H       
  57 H57            6.1263     3.5928     2.4909 H       
  58 H58            4.5418     3.2591     4.3429 H       
  59 H59            2.6471     4.8001     4.6391 H       
  60 H60            2.3264     6.6814     3.0866 H       
  61 H61            3.9044     7.0342     1.2325 H       
@<TRIPOS>BOND
   1    1    2 ar
   2    1    6 ar
   3    1   41 1
   4    2    3 ar
   5    2   42 1
   6    3    4 ar
   7    3   26 1
   8    4    5 ar
   9    4    7 1
  10    5    6 ar
  11    5   10 1
  12    6   25 1
  13    7    8 1
  14    7   16 1
  15    8    9 2
  16    8   43 1
  17    9   10 1
  18    9   11 1
  19   10   13 2
  20   11   12 am
  21   11   15 2
  22   12   13 1
  23   12   14 1
  24   14   30 ar
  25   14   31 ar
  26   16   17 1
  27   16   44 1
  28   16   45 1
  29   17   18 ar
  30   17   22 ar
  31   18   19 ar
  32   18   46 1
  33   19   20 ar
  34   19   47 1
  35   20   21 ar
  36   20   23 1
  37   21   22 ar
  38   21   48 1
  39   22   49 1
  40   23   24 1
  41   23   29 1
  42   24   27 2
  43   24   50 1
  44   27   28 1
  45   27   51 1
  46   28   29 2
  47   28   52 1
  48   30   34 1
  49   30   33 ar
  50   31   35 ar
  51   31   53 1
  52   32   33 ar
  53   32   35 ar
  54   32   54 1
  55   33   55 1
  56   34   36 ar
  57   34   40 ar
  58   35   56 1
  59   36   37 ar
  60   36   57 1
  61   37   38 ar
  62   37   58 1
  63   38   39 ar
  64   38   59 1
  65   39   40 ar
  66   39   60 1
  67   40   61 1

#	End of record

