#	Name: ASD05430499
#	Creating user name:	WinNT
#	Creation time:	15. 06. 2019 21:00

#	Modifying user name:	WinNT
#	Modification time:	15. 06. 2019 21:00

#	Program:	/corina/corina34_cracker 3.40 0067  02.08.2006

@<TRIPOS>MOLECULE
ASD05430499
  65   69    0    0    0
SMALL
NO_CHARGES


@<TRIPOS>ATOM
   1 C1            -0.2362     2.4193    -0.3626 C.ar    
   2 C2            -0.0114     1.1183     0.0889 C.ar    
   3 C3            -1.0846     0.2865     0.3856 C.ar    
   4 C4            -2.3753     0.7420     0.2355 C.ar    
   5 C5            -2.6090     2.0464    -0.2171 C.ar    
   6 C6            -1.5278     2.8856    -0.5108 C.ar    
   7 C7            -5.0276     1.6909    -0.1990 C.2     
   8 C8            -3.9853     2.5345    -0.3784 C.2     
   9 O9             0.8164     3.2299    -0.6513 O.3     
  10 C10            0.5128     4.5492    -1.1086 C.3     
  11 C11            1.8171     0.0284     1.3500 C.2     
  12 N12            1.2985     0.6495     0.2430 N.pl3   
  13 C13            3.1040    -0.2538     1.0718 C.2     
  14 N14            3.3694     0.1805    -0.1693 N.2     
  15 C15            2.2963     0.7234    -0.6763 C.2     
  16 C16            4.0778    -0.9393     1.9952 C.3     
  17 C17           -8.8295     1.7225     1.4905 C.ar    
  18 C18          -10.0080     2.0904     2.1125 C.ar    
  19 C19           -7.7363     1.3436     2.2472 C.ar    
  20 C20           -7.8206     1.3319     3.6265 C.ar    
  21 C21           -9.0004     1.7002     4.2506 C.ar    
  22 C22          -10.0945     2.0799     3.4917 C.ar    
  23 F23           -9.0841     1.6887     5.5990 F       
  24 N24           -7.3998     1.3029    -0.4023 N.pl3   
  25 C25           -8.7384     1.7284    -0.0138 C.3     
  26 C26           -7.0918    -0.0301    -0.9162 C.3     
  27 C27           -8.3125    -0.6426    -1.6006 C.3     
  28 O28           -9.4257    -0.5109    -0.7073 O.3     
  29 C29           -9.8484     0.8528    -0.5724 C.3     
  30 C30           -8.9761     3.1605    -0.5142 C.3     
  31 C31           -7.7767     4.0136    -0.2041 C.2     
  32 N32           -6.5650     3.4855    -0.1197 N.2     
  33 C33           -6.3530     2.1853    -0.2393 C.2     
  34 O34           -7.9219     5.2076    -0.0279 O.2     
  35 C35           -5.9467     0.0716    -1.9259 C.3     
  36 C36           -5.7439    -1.2842    -2.6053 C.3     
  37 H37           -0.9057    -0.7198     0.7344 H       
  38 H38           -3.2073     0.0932     0.4665 H       
  39 H39           -1.7031     3.8923    -0.8601 H       
  40 H40           -4.8481     0.6402    -0.0250 H       
  41 H41           -4.1649     3.5667    -0.6402 H       
  42 H42           -0.0613     5.0751    -0.3458 H       
  43 H43            1.4398     5.0889    -1.3023 H       
  44 H44           -0.0717     4.4900    -2.0268 H       
  45 H45            1.2950    -0.1885     2.2702 H       
  46 H46            2.2148     1.1578    -1.6617 H       
  47 H47            4.0304    -2.0169     1.8382 H       
  48 H48            5.0874    -0.5857     1.7859 H       
  49 H49            3.8200    -0.7111     3.0294 H       
  50 H50          -10.8613     2.3865     1.5204 H       
  51 H51           -6.8162     1.0563     1.7601 H       
  52 H52           -6.9667     1.0352     4.2174 H       
  53 H53          -11.0152     2.3678     3.9775 H       
  54 H54           -6.7846    -0.6710    -0.0898 H       
  55 H55           -8.5198    -0.1122    -2.5299 H       
  56 H56           -8.1289    -1.6966    -1.8091 H       
  57 H57          -10.6929     0.8951     0.1155 H       
  58 H58          -10.1692     1.2218    -1.5466 H       
  59 H59           -9.1412     3.1452    -1.5915 H       
  60 H60           -9.8541     3.5761    -0.0197 H       
  61 H61           -6.1909     0.8219    -2.6778 H       
  62 H62           -5.0312     0.3596    -1.4091 H       
  63 H63           -6.6232    -1.5268    -3.2019 H       
  64 H64           -4.8674    -1.2392    -3.2517 H       
  65 H65           -5.5965    -2.0525    -1.8463 H       
@<TRIPOS>BOND
   1    1    2 ar
   2    1    9 1
   3    1    6 ar
   4    2    3 ar
   5    2   12 1
   6    3    4 ar
   7    3   37 1
   8    4    5 ar
   9    4   38 1
  10    5    6 ar
  11    5    8 1
  12    6   39 1
  13    7    8 2
  14    7   33 1
  15    7   40 1
  16    8   41 1
  17    9   10 1
  18   10   42 1
  19   10   43 1
  20   10   44 1
  21   11   12 1
  22   11   13 2
  23   11   45 1
  24   12   15 1
  25   13   14 1
  26   13   16 1
  27   14   15 2
  28   15   46 1
  29   16   47 1
  30   16   48 1
  31   16   49 1
  32   17   18 ar
  33   17   19 ar
  34   17   25 1
  35   18   22 ar
  36   18   50 1
  37   19   20 ar
  38   19   51 1
  39   20   21 ar
  40   20   52 1
  41   21   22 ar
  42   21   23 1
  43   22   53 1
  44   24   25 1
  45   24   26 1
  46   24   33 1
  47   25   30 1
  48   25   29 1
  49   26   27 1
  50   26   35 1
  51   26   54 1
  52   27   28 1
  53   27   55 1
  54   27   56 1
  55   28   29 1
  56   29   57 1
  57   29   58 1
  58   30   31 1
  59   30   59 1
  60   30   60 1
  61   31   32 1
  62   31   34 2
  63   32   33 2
  64   35   36 1
  65   35   61 1
  66   35   62 1
  67   36   63 1
  68   36   64 1
  69   36   65 1

#	End of record

