#	Name: ASD06660107
#	Creating user name:	WinNT
#	Creation time:	15. 06. 2019 21:08

#	Modifying user name:	WinNT
#	Modification time:	15. 06. 2019 21:08

#	Program:	/corina/corina34_cracker 3.40 0067  02.08.2006

@<TRIPOS>MOLECULE
ASD06660107
  76   80    0    0    0
SMALL
NO_CHARGES


@<TRIPOS>ATOM
   1 C1            -1.3527     1.7053     0.5241 C.2     
   2 C2            -0.9280     0.4358    -0.1678 C.3     
   3 C3            -1.5682     0.3728    -1.5560 C.3     
   4 O4            -0.5221     2.5117     0.8701 O.2     
   5 O5            -2.6542     1.9428     0.7511 O.3     
   6 C6            -1.2506    -0.9541    -2.1960 C.ar    
   7 C7            -2.0475    -2.0539    -1.9360 C.ar    
   8 C8            -1.7590    -3.2713    -2.5209 C.ar    
   9 C9            -0.6676    -3.3901    -3.3713 C.ar    
  10 C10            0.1305    -2.2836    -3.6308 C.ar    
  11 C11           -0.1662    -1.0679    -3.0465 C.ar    
  12 N12           -0.3724    -4.6222    -3.9652 N.am    
  13 C13           -1.1367    -5.7220    -3.8504 C.2     
  14 C14           -0.5227    -6.8657    -4.6273 C.3     
  15 C15            0.5000    -6.1819    -5.5641 C.3     
  16 C16            0.8082    -4.8781    -4.7986 C.3     
  17 C17            1.7573    -7.0394    -5.7211 C.3     
  18 N18            1.4197    -8.2760    -6.4303 N.pl3   
  19 C19            2.4069    -9.2190    -6.6918 C.ar    
  20 C20            3.7138    -8.9821    -6.2772 C.ar    
  21 C21            4.6860    -9.9289    -6.5439 C.ar    
  22 C22            4.3175   -11.0853    -7.2190 C.ar    
  23 C23            3.0022   -11.2550    -7.6012 C.ar    
  24 N24            2.0942   -10.3369    -7.3285 N.ar    
  25 O25           -2.1683    -5.7880    -3.2159 O.2     
  26 C26            1.3023     0.1469     0.7701 C.2     
  27 C27            2.7653     0.0228     0.6140 C.ar    
  28 C28            3.3488    -1.2375     0.4599 C.ar    
  29 C29            4.7135    -1.3493     0.3141 C.ar    
  30 C30            5.5108    -0.2100     0.3203 C.ar    
  31 C31            4.9339     1.0455     0.4739 C.ar    
  32 C32            3.5689     1.1654     0.6144 C.ar    
  33 O33            0.7936     0.0055     1.8652 O.2     
  34 N34            0.5308     0.4170    -0.3015 N.am    
  35 C35            2.9437     2.5273     0.7742 C.3     
  36 C36            7.5974    -1.4812     0.0136 C.2     
  37 N37            8.8643    -1.1865    -0.0909 N.2     
  38 C38            9.0203     0.1432    -0.0049 C.2     
  39 C39            7.8055     0.6996     0.1593 C.2     
  40 N40            6.8966    -0.3275     0.1720 N.pl3   
  41 C41            2.4856    -2.4728     0.4536 C.3     
  42 C42            1.9476    -2.7118    -0.9586 C.3     
  43 H43           -1.2501    -0.4237     0.4201 H       
  44 H44           -2.6487     0.4820    -1.4631 H       
  45 H45           -1.1735     1.1785    -2.1750 H       
  46 H46           -2.8780     2.7707     1.1981 H       
  47 H47           -2.8961    -1.9608    -1.2745 H       
  48 H48           -2.3814    -4.1300    -2.3169 H       
  49 H49            0.9800    -2.3728    -4.2917 H       
  50 H50            0.4517    -0.2060    -3.2510 H       
  51 H51           -0.0188    -7.5580    -3.9528 H       
  52 H52           -1.2849    -7.3847    -5.2085 H       
  53 H53            0.0547    -5.9637    -6.5347 H       
  54 H54            0.9617    -4.0561    -5.4978 H       
  55 H55            1.6904    -5.0112    -4.1723 H       
  56 H56            2.5052    -6.4869    -6.2899 H       
  57 H57            2.1565    -7.2827    -4.7364 H       
  58 H58            0.5072    -8.4367    -6.7175 H       
  59 H59            3.9656    -8.0712    -5.7544 H       
  60 H60            5.7088    -9.7723    -6.2345 H       
  61 H61            5.0528   -11.8439    -7.4430 H       
  62 H62            2.7113   -12.1528    -8.1264 H       
  63 H63            5.1652    -2.3231     0.1953 H       
  64 H64            5.5562     1.9281     0.4789 H       
  65 H65            0.9414     0.5990    -1.1613 H       
  66 H66            2.8957     2.7831     1.8327 H       
  67 H67            3.5465     3.2678     0.2484 H       
  68 H68            1.9367     2.5161     0.3571 H       
  69 H69            7.1760    -2.4749    -0.0241 H       
  70 H70            9.9585     0.6754    -0.0580 H       
  71 H71            7.5883     1.7526     0.2615 H       
  72 H72            3.0787    -3.3320     0.7668 H       
  73 H73            1.6515    -2.3367     1.1420 H       
  74 H74            1.4379    -1.8147    -1.3099 H       
  75 H75            2.7755    -2.9451    -1.6281 H       
  76 H76            1.2461    -3.5460    -0.9437 H       
@<TRIPOS>BOND
   1    1    2 1
   2    1    4 2
   3    1    5 1
   4    2    3 1
   5    2   34 1
   6    2   43 1
   7    3    6 1
   8    3   44 1
   9    3   45 1
  10    5   46 1
  11    6    7 ar
  12    6   11 ar
  13    7    8 ar
  14    7   47 1
  15    8    9 ar
  16    8   48 1
  17    9   10 ar
  18    9   12 1
  19   10   11 ar
  20   10   49 1
  21   11   50 1
  22   12   13 am
  23   12   16 1
  24   13   14 1
  25   13   25 2
  26   14   15 1
  27   14   51 1
  28   14   52 1
  29   15   16 1
  30   15   17 1
  31   15   53 1
  32   16   54 1
  33   16   55 1
  34   17   18 1
  35   17   56 1
  36   17   57 1
  37   18   19 1
  38   18   58 1
  39   19   20 ar
  40   19   24 ar
  41   20   21 ar
  42   20   59 1
  43   21   22 ar
  44   21   60 1
  45   22   23 ar
  46   22   61 1
  47   23   24 ar
  48   23   62 1
  49   26   27 1
  50   26   33 2
  51   26   34 am
  52   27   28 ar
  53   27   32 ar
  54   28   29 ar
  55   28   41 1
  56   29   30 ar
  57   29   63 1
  58   30   31 ar
  59   30   40 1
  60   31   32 ar
  61   31   64 1
  62   32   35 1
  63   34   65 1
  64   35   66 1
  65   35   67 1
  66   35   68 1
  67   36   37 2
  68   36   40 1
  69   36   69 1
  70   37   38 1
  71   38   39 2
  72   38   70 1
  73   39   40 1
  74   39   71 1
  75   41   42 1
  76   41   72 1
  77   41   73 1
  78   42   74 1
  79   42   75 1
  80   42   76 1

#	End of record

