#	Name: ASD01903027
#	Creating user name:	WinNT
#	Creation time:	15. 06. 2019 19:54

#	Modifying user name:	WinNT
#	Modification time:	15. 06. 2019 19:54

#	Program:	/corina/corina34_cracker 3.40 0067  02.08.2006

@<TRIPOS>MOLECULE
ASD01903027
  31   33    0    0    0
SMALL
NO_CHARGES


@<TRIPOS>ATOM
   1 C1             0.0742     1.4013     0.1108 C.ar    
   2 C2             0.1606     0.0237     0.1656 C.ar    
   3 C3             1.4041    -0.5945     0.1659 C.ar    
   4 C4             2.5594     0.1707     0.1117 C.ar    
   5 C5             2.4743     1.5481     0.0573 C.ar    
   6 C6             1.2315     2.1675     0.0560 C.ar    
   7 N7             1.1450     3.5635     0.0008 N.am    
   8 C8             0.1338     4.1500    -0.6699 C.2     
   9 O9            -0.6474     3.4706    -1.3084 O.2     
  10 C10           -0.0252     5.6130    -0.6299 C.2     
  11 O11            1.4890    -1.9507     0.2199 O.3     
  12 C12            1.3016    -2.6458    -0.9275 C.ar    
  13 N13            1.2787    -3.9683    -0.8847 N.ar    
  14 C14            1.0974    -4.6778    -1.9864 C.ar    
  15 C15            0.9305    -4.0191    -3.1945 C.ar    
  16 C16            0.9601    -2.6334    -3.2024 C.ar    
  17 N17            1.1405    -1.9857    -2.0631 N.ar    
  18 Cl18          -1.2852    -0.9347     0.2347 Cl      
  19 S19           -1.2878     6.5283    -1.4480 S.3     
  20 C20           -0.6458     7.9870    -0.8264 C.2     
  21 C21            0.4309     7.7079    -0.0751 C.2     
  22 N22            0.7436     6.4425     0.0226 N.2     
  23 H23           -0.8928     1.8822     0.1060 H       
  24 H24            3.5262    -0.3108     0.1124 H       
  25 H25            3.3744     2.1435     0.0154 H       
  26 H26            1.8128     4.1087     0.4454 H       
  27 H27            1.0800    -5.7568    -1.9451 H       
  28 H28            0.7811    -4.5733    -4.1093 H       
  29 H29            0.8337    -2.0892    -4.1266 H       
  30 H30           -1.0429     8.9745    -1.0096 H       
  31 H31            1.0006     8.4800     0.4207 H       
@<TRIPOS>BOND
   1    1    2 ar
   2    1    6 ar
   3    1   23 1
   4    2    3 ar
   5    2   18 1
   6    3    4 ar
   7    3   11 1
   8    4    5 ar
   9    4   24 1
  10    5    6 ar
  11    5   25 1
  12    6    7 1
  13    7    8 am
  14    7   26 1
  15    8    9 2
  16    8   10 1
  17   10   19 1
  18   10   22 2
  19   11   12 1
  20   12   13 ar
  21   12   17 ar
  22   13   14 ar
  23   14   15 ar
  24   14   27 1
  25   15   16 ar
  26   15   28 1
  27   16   17 ar
  28   16   29 1
  29   19   20 1
  30   20   21 2
  31   20   30 1
  32   21   22 1
  33   21   31 1

#	End of record

