#	Name: ASD08710058
#	Creating user name:	WinNT
#	Creation time:	15. 06. 2019 21:19

#	Modifying user name:	WinNT
#	Modification time:	15. 06. 2019 21:19

#	Program:	/corina/corina34_cracker 3.40 0067  02.08.2006

@<TRIPOS>MOLECULE
ASD08710058
  47   49    0    0    0
SMALL
NO_CHARGES


@<TRIPOS>ATOM
   1 C1             0.3774     2.6308     0.6780 C.ar    
   2 C2             0.6970     1.3001     0.8493 C.ar    
   3 C3            -0.4228     3.0204    -0.3982 C.ar    
   4 C4            -0.8938     2.0586    -1.2938 C.ar    
   5 C5            -0.5663     0.7309    -1.1105 C.ar    
   6 C6             0.2267     0.3519    -0.0422 C.ar    
   7 S7             0.6405    -1.3458     0.1839 S.o2    
   8 O8             1.5119    -1.4005     1.3050 O.2     
   9 O9            -0.5804    -2.0693     0.1126 O.2     
  10 N10            1.5371    -1.8109    -1.1284 N.am    
  11 C11            2.9822    -1.5484    -1.1780 C.3     
  12 C12            0.9029    -2.4990    -2.2616 C.3     
  13 C13            1.6381    -3.8229    -2.5048 C.3     
  14 N14            3.0822    -3.5554    -2.5568 N.am    
  15 C15            3.7130    -2.8743    -1.4234 C.3     
  16 C16            3.8121    -3.9347    -3.6245 C.2     
  17 C17            5.2805    -3.7660    -3.6136 C.ar    
  18 O18            3.2627    -4.4155    -4.5964 O.2     
  19 C19            5.9487    -3.2934    -4.7440 C.ar    
  20 N20            7.2566    -3.1430    -4.7347 N.ar    
  21 C21            7.9835    -3.4283    -3.6702 C.ar    
  22 C22            7.3958    -3.9014    -2.5099 C.ar    
  23 C23            6.0236    -4.0722    -2.4670 C.ar    
  24 C24           -1.0742    -0.3089    -2.0759 C.3     
  25 C25           -0.7590     4.4002    -0.5820 C.1     
  26 N26           -1.0258     5.4948    -0.7278 N.1     
  27 I27           10.0603    -3.1612    -3.7387 I       
  28 C28            1.3367    -4.7949    -1.3623 C.3     
  29 H29            0.7414     3.3692     1.3770 H       
  30 H30            1.3160     0.9974     1.6809 H       
  31 H31           -1.5133     2.3530    -2.1280 H       
  32 H32            3.2004    -0.8547    -1.9899 H       
  33 H33            3.3090    -1.1205    -0.2302 H       
  34 H34           -0.1432    -2.6987    -2.0294 H       
  35 H35            0.9696    -1.8745    -3.1525 H       
  36 H36            1.3116    -4.2542    -3.4511 H       
  37 H37            4.7591    -2.6728    -1.6538 H       
  38 H38            3.6459    -3.5029    -0.5355 H       
  39 H39            5.3881    -3.0492    -5.6342 H       
  40 H40            8.0016    -4.1311    -1.6458 H       
  41 H41            5.5388    -4.4398    -1.5747 H       
  42 H42           -0.3683    -0.4156    -2.8995 H       
  43 H43           -1.1778    -1.2636    -1.5603 H       
  44 H44           -2.0438     0.0004    -2.4662 H       
  45 H45            0.2635    -4.9798    -1.3161 H       
  46 H46            1.8602    -5.7348    -1.5373 H       
  47 H47            1.6718    -4.3625    -0.4195 H       
@<TRIPOS>BOND
   1    1    2 ar
   2    1    3 ar
   3    1   29 1
   4    2    6 ar
   5    2   30 1
   6    3    4 ar
   7    3   25 1
   8    4    5 ar
   9    4   31 1
  10    5    6 ar
  11    5   24 1
  12    6    7 1
  13    7    8 2
  14    7    9 2
  15    7   10 am
  16   10   11 1
  17   10   12 1
  18   11   15 1
  19   11   32 1
  20   11   33 1
  21   12   13 1
  22   12   34 1
  23   12   35 1
  24   13   14 1
  25   13   28 1
  26   13   36 1
  27   14   15 1
  28   14   16 am
  29   15   37 1
  30   15   38 1
  31   16   17 1
  32   16   18 2
  33   17   19 ar
  34   17   23 ar
  35   19   20 ar
  36   19   39 1
  37   20   21 ar
  38   21   22 ar
  39   21   27 1
  40   22   23 ar
  41   22   40 1
  42   23   41 1
  43   24   42 1
  44   24   43 1
  45   24   44 1
  46   25   26 3
  47   28   45 1
  48   28   46 1
  49   28   47 1

#	End of record

