#	Name: ASD09080008
#	Creating user name:	WinNT
#	Creation time:	15. 06. 2019 21:20

#	Modifying user name:	WinNT
#	Modification time:	15. 06. 2019 21:20

#	Program:	/corina/corina34_cracker 3.40 0067  02.08.2006

@<TRIPOS>MOLECULE
ASD09080008
  66   69    0    0    0
SMALL
NO_CHARGES


@<TRIPOS>ATOM
   1 C1            -0.0167     1.3799     0.0096 C.ar    
   2 C2             0.0021    -0.0041     0.0020 C.ar    
   3 C3            -1.1844    -0.7169     0.0091 C.ar    
   4 C4            -2.3938    -0.0494     0.0242 C.ar    
   5 C5            -2.4179     1.3436     0.0324 C.ar    
   6 C6            -1.2209     2.0565     0.0305 C.ar    
   7 Cl7            1.4756     2.2669     0.0001 Cl      
   8 Cl8           -1.1526    -2.4526    -0.0017 Cl      
   9 C9            -3.7143     2.0655     0.0481 C.ar    
  10 C10           -3.7388     3.4586     0.0563 C.ar    
  11 C11           -4.9474     4.1250     0.0704 C.ar    
  12 C12           -6.1329     3.4124     0.0765 C.ar    
  13 C13           -6.1145     2.0293     0.0689 C.ar    
  14 C14           -4.9116     1.3528     0.0489 C.ar    
  15 C15           -7.4494     4.1455     0.0919 C.3     
  16 C16           -7.9073     4.4019    -1.3453 C.3     
  17 C17           -9.1592     5.2407    -1.3316 C.2     
  18 O18          -10.1769     4.8147    -1.8224 O.2     
  19 N19           -9.1609     2.2641    -1.4868 N.am    
  20 C20          -12.5848     5.6661    -6.0591 C.ar    
  21 C21          -12.2025     5.1733    -7.2927 C.ar    
  22 C22          -11.7276     3.8798    -7.4032 C.ar    
  23 C23          -11.6349     3.0791    -6.2802 C.ar    
  24 C24          -12.0173     3.5720    -5.0465 C.ar    
  25 C25          -12.4922     4.8655    -4.9360 C.ar    
  26 C26          -11.9163     2.6992    -3.8222 C.3     
  27 O27          -10.6090     2.8685    -3.2135 O.3     
  28 C28          -10.3553     2.1534    -2.1013 C.2     
  29 O29          -11.2032     1.4081    -1.6516 O.2     
  30 N30           -8.1834     3.1234    -2.0053 N.am    
  31 C31           -7.1407    -2.4364    -5.4986 C.ar    
  32 C32           -8.1613    -2.5219    -6.4271 C.ar    
  33 C33           -8.7974    -1.3745    -6.8626 C.ar    
  34 C34           -8.4130    -0.1416    -6.3697 C.ar    
  35 C35           -7.3924    -0.0560    -5.4413 C.ar    
  36 C36           -6.7562    -1.2034    -5.0058 C.ar    
  37 C37           -6.9732     1.2881    -4.9040 C.3     
  38 O38           -7.7506     1.5990    -3.7177 O.3     
  39 C39           -7.4969     2.7739    -3.1112 C.2     
  40 O40           -6.6491     3.5191    -3.5609 O.2     
  41 H41            0.9456    -0.5295    -0.0098 H       
  42 H42           -3.3190    -0.6065     0.0293 H       
  43 H43           -1.2346     3.1364     0.0372 H       
  44 H44           -2.8137     4.0160     0.0519 H       
  45 H45           -4.9675     5.2048     0.0771 H       
  46 H46           -7.0430     1.4778     0.0744 H       
  47 H47           -4.8983     0.2729     0.0430 H       
  48 H48           -8.1955     3.5418     0.6087 H       
  49 H49           -7.3295     5.0969     0.6102 H       
  50 H50           -7.1227     4.9290    -1.8880 H       
  51 H51           -9.1461     6.2230    -0.8828 H       
  52 H52           -8.9782     1.7489    -0.6855 H       
  53 H53          -12.9517     6.6782    -5.9720 H       
  54 H54          -12.2752     5.7987    -8.1702 H       
  55 H55          -11.4296     3.4945    -8.3672 H       
  56 H56          -11.2646     2.0683    -6.3666 H       
  57 H57          -12.7906     5.2506    -3.9721 H       
  58 H58          -12.6892     2.9839    -3.1083 H       
  59 H59          -12.0519     1.6559    -4.1075 H       
  60 H60           -6.6467    -3.3332    -5.1550 H       
  61 H61           -8.4614    -3.4852    -6.8124 H       
  62 H62           -9.5943    -1.4413    -7.5885 H       
  63 H63           -8.9095     0.7549    -6.7105 H       
  64 H64           -5.9591    -1.1366    -4.2802 H       
  65 H65           -5.9140     1.2628    -4.6480 H       
  66 H66           -7.1457     2.0522    -5.6620 H       
@<TRIPOS>BOND
   1    1    2 ar
   2    1    7 1
   3    1    6 ar
   4    2    3 ar
   5    2   41 1
   6    3    4 ar
   7    3    8 1
   8    4    5 ar
   9    4   42 1
  10    5    6 ar
  11    5    9 1
  12    6   43 1
  13    9   10 ar
  14    9   14 ar
  15   10   11 ar
  16   10   44 1
  17   11   12 ar
  18   11   45 1
  19   12   13 ar
  20   12   15 1
  21   13   14 ar
  22   13   46 1
  23   14   47 1
  24   15   16 1
  25   15   48 1
  26   15   49 1
  27   16   17 1
  28   16   30 1
  29   16   50 1
  30   17   18 2
  31   17   51 1
  32   19   28 am
  33   19   30 1
  34   19   52 1
  35   20   21 ar
  36   20   25 ar
  37   20   53 1
  38   21   22 ar
  39   21   54 1
  40   22   23 ar
  41   22   55 1
  42   23   24 ar
  43   23   56 1
  44   24   25 ar
  45   24   26 1
  46   25   57 1
  47   26   27 1
  48   26   58 1
  49   26   59 1
  50   27   28 1
  51   28   29 2
  52   30   39 am
  53   31   32 ar
  54   31   36 ar
  55   31   60 1
  56   32   33 ar
  57   32   61 1
  58   33   34 ar
  59   33   62 1
  60   34   35 ar
  61   34   63 1
  62   35   36 ar
  63   35   37 1
  64   36   64 1
  65   37   38 1
  66   37   65 1
  67   37   66 1
  68   38   39 1
  69   39   40 2

#	End of record

