#	Name: ASD01816469
#	Creating user name:	WinNT
#	Creation time:	15. 06. 2019 19:35

#	Modifying user name:	WinNT
#	Modification time:	15. 06. 2019 19:35

#	Program:	/corina/corina34_cracker 3.40 0067  02.08.2006

@<TRIPOS>MOLECULE
ASD01816469
  54   59    0    0    0
SMALL
NO_CHARGES


@<TRIPOS>ATOM
   1 C1            -0.0167     1.3808     0.0096 C.ar    
   2 C2             0.0021    -0.0041     0.0020 C.ar    
   3 C3             1.1981    -0.6916    -0.0131 C.ar    
   4 C4             2.4023     0.0033    -0.0209 C.ar    
   5 C5             2.3824     1.4079    -0.0132 C.ar    
   6 C6             1.1688     2.0918     0.0021 C.ar    
   7 N7             3.6050    -0.6818    -0.0356 N.pl3   
   8 C8             4.7978    -0.0651    -0.0433 C.2     
   9 C9             4.9029     1.3035    -0.0369 C.2     
  10 C10            3.6711     2.1253    -0.0217 C.2     
  11 C11            6.0015     2.2645    -0.0423 C.2     
  12 N12            5.4308     3.4885    -0.0312 N.am    
  13 N13            4.0384     3.3745    -0.0191 N.2     
  14 C14            6.1340     4.6987    -0.0317 C.ar    
  15 O15            7.1954     2.0127    -0.0541 O.2     
  16 C16            3.5752    -2.1465    -0.0427 C.3     
  17 C17            3.5517    -2.6416    -1.4658 C.ar    
  18 C18            4.7390    -2.8926    -2.1288 C.ar    
  19 C19            4.7206    -3.3460    -3.4333 C.ar    
  20 C20            3.5085    -3.5501    -4.0788 C.ar    
  21 C21            2.3181    -3.2977    -3.4104 C.ar    
  22 C22            2.3428    -2.8493    -2.1042 C.ar    
  23 N23            3.4866    -4.0098    -5.4030 N.pl3   
  24 C24            2.3812    -4.2490    -6.1442 C.2     
  25 C25            2.7868    -4.6787    -7.3616 C.2     
  26 C26            4.1858    -4.7033    -7.3656 C.2     
  27 N27            4.6061    -4.2970    -6.1946 N.2     
  28 C28            7.0708     4.9588    -1.0234 C.ar    
  29 F29            1.1506     3.4426     0.0091 F       
  30 C30            7.7627     6.1543    -1.0213 C.ar    
  31 C31            7.5239     7.0913    -0.0329 C.ar    
  32 C32            6.5920     6.8351     0.9565 C.ar    
  33 C33            5.8924     5.6446     0.9566 C.ar    
  34 C34            4.8772     5.3663     2.0350 C.3     
  35 H35           -0.9600     1.9066     0.0170 H       
  36 H36           -0.9290    -0.5513     0.0084 H       
  37 H37            1.1990    -1.7716    -0.0186 H       
  38 H38            5.6981    -0.6616    -0.0544 H       
  39 H39            4.4624    -2.5304     0.4609 H       
  40 H40            2.6829    -2.4942     0.4778 H       
  41 H41            5.6815    -2.7336    -1.6262 H       
  42 H42            5.6482    -3.5412    -3.9509 H       
  43 H43            1.3736    -3.4552    -3.9101 H       
  44 H44            1.4171    -2.6528    -1.5837 H       
  45 H45            1.3583    -4.1207    -5.8223 H       
  46 H46            2.1442    -4.9540    -8.1847 H       
  47 H47            4.8112    -5.0018    -8.1939 H       
  48 H48            7.2583     4.2271    -1.7953 H       
  49 H49            8.4913     6.3572    -1.7923 H       
  50 H50            8.0665     8.0251    -0.0333 H       
  51 H51            6.4083     7.5687     1.7275 H       
  52 H52            3.9001     5.7296     1.7166 H       
  53 H53            4.8244     4.2928     2.2160 H       
  54 H54            5.1728     5.8754     2.9524 H       
@<TRIPOS>BOND
   1    1    2 ar
   2    1    6 ar
   3    1   35 1
   4    2    3 ar
   5    2   36 1
   6    3    4 ar
   7    3   37 1
   8    4    5 ar
   9    4    7 1
  10    5    6 ar
  11    5   10 1
  12    6   29 1
  13    7    8 1
  14    7   16 1
  15    8    9 2
  16    8   38 1
  17    9   10 1
  18    9   11 1
  19   10   13 2
  20   11   12 am
  21   11   15 2
  22   12   13 1
  23   12   14 1
  24   14   28 ar
  25   14   33 ar
  26   16   17 1
  27   16   39 1
  28   16   40 1
  29   17   18 ar
  30   17   22 ar
  31   18   19 ar
  32   18   41 1
  33   19   20 ar
  34   19   42 1
  35   20   21 ar
  36   20   23 1
  37   21   22 ar
  38   21   43 1
  39   22   44 1
  40   23   24 1
  41   23   27 1
  42   24   25 2
  43   24   45 1
  44   25   26 1
  45   25   46 1
  46   26   27 2
  47   26   47 1
  48   28   30 ar
  49   28   48 1
  50   30   31 ar
  51   30   49 1
  52   31   32 ar
  53   31   50 1
  54   32   33 ar
  55   32   51 1
  56   33   34 1
  57   34   52 1
  58   34   53 1
  59   34   54 1

#	End of record

