#	Name: ASD03240501
#	Creating user name:	WinNT
#	Creation time:	15. 06. 2019 20:35

#	Modifying user name:	WinNT
#	Modification time:	15. 06. 2019 20:35

#	Program:	/corina/corina34_cracker 3.40 0067  02.08.2006

@<TRIPOS>MOLECULE
ASD03240501
  50   53    0    0    0
SMALL
NO_CHARGES


@<TRIPOS>ATOM
   1 C1             0.5525     0.8484    -0.3640 C.ar    
   2 C2             0.0902    -0.4493    -0.4882 C.ar    
   3 C3             1.7998     1.1885    -0.8475 C.ar    
   4 C4             2.5934     0.2221    -1.4614 C.ar    
   5 C5             2.1229    -1.0833    -1.5838 C.ar    
   6 C6             0.8743    -1.4128    -1.0964 C.ar    
   7 C7             3.9357     0.5823    -1.9838 C.2     
   8 C8             4.8122    -0.2597    -2.6035 C.2     
   9 N9             5.9095     0.4561    -2.9221 N.pl3   
  10 N10            5.7127     1.7737    -2.4914 N.2     
  11 C11            4.5332     1.8568    -1.9351 C.2     
  12 C12           -1.2725    -0.8148     0.0416 C.3     
  13 C13           -2.0675    -1.5349    -1.0494 C.3     
  14 C14           -1.1206    -1.7228     1.2347 C.ar    
  15 C15           -1.4838    -1.2751     2.4920 C.ar    
  16 C16           -1.3472    -2.1028     3.5881 C.ar    
  17 C17           -0.8425    -3.3911     3.4263 C.ar    
  18 C18           -0.4783    -3.8369     2.1578 C.ar    
  19 C19           -0.6239    -3.0028     1.0677 C.ar    
  20 C20           -0.6929    -4.2856     4.6018 C.2     
  21 N21           -3.4353    -1.7840    -0.5750 N.3     
  22 C22           -4.2403    -0.5561    -0.6212 C.3     
  23 C23           -1.0190    -3.9696     5.9350 C.2     
  24 N24           -0.7477    -5.0105     6.6770 N.2     
  25 N25           -0.2419    -6.0238     5.8538 N.pl3   
  26 C26           -0.2202    -5.5654     4.5860 C.2     
  27 C27           -4.0720    -2.8603    -1.3458 C.3     
  28 H28           -0.0654     1.5979     0.1081 H       
  29 H29            2.1597     2.2021    -0.7504 H       
  30 H30            2.7343    -1.8364    -2.0586 H       
  31 H31            0.5087    -2.4247    -1.1905 H       
  32 H32            4.6555    -1.3095    -2.8028 H       
  33 H33            6.6990     0.1168    -3.3720 H       
  34 H34            4.0956     2.7463    -1.5065 H       
  35 H35           -1.8015     0.0906     0.3390 H       
  36 H36           -2.1009    -0.9138    -1.9446 H       
  37 H37           -1.5856    -2.4841    -1.2836 H       
  38 H38           -1.8747    -0.2760     2.6164 H       
  39 H39           -1.6308    -1.7522     4.5694 H       
  40 H40           -0.0865    -4.8348     2.0270 H       
  41 H41           -0.3418    -3.3474     0.0838 H       
  42 H42           -4.2873    -0.1908    -1.6471 H       
  43 H43           -5.2482    -0.7688    -0.2647 H       
  44 H44           -3.7828     0.2025     0.0139 H       
  45 H45           -1.4227    -3.0305     6.2835 H       
  46 H46            0.0406    -6.9050     6.1448 H       
  47 H47            0.1170    -6.1101     3.7165 H       
  48 H48           -3.5349    -3.7938    -1.1783 H       
  49 H49           -5.1073    -2.9740    -1.0242 H       
  50 H50           -4.0463    -2.6116    -2.4067 H       
@<TRIPOS>BOND
   1    1    2 ar
   2    1    3 ar
   3    1   28 1
   4    2   12 1
   5    2    6 ar
   6    3    4 ar
   7    3   29 1
   8    4    5 ar
   9    4    7 1
  10    5    6 ar
  11    5   30 1
  12    6   31 1
  13    7    8 2
  14    7   11 1
  15    8    9 1
  16    8   32 1
  17    9   10 1
  18    9   33 1
  19   10   11 2
  20   11   34 1
  21   12   13 1
  22   12   14 1
  23   12   35 1
  24   13   21 1
  25   13   36 1
  26   13   37 1
  27   14   15 ar
  28   14   19 ar
  29   15   16 ar
  30   15   38 1
  31   16   17 ar
  32   16   39 1
  33   17   18 ar
  34   17   20 1
  35   18   19 ar
  36   18   40 1
  37   19   41 1
  38   20   23 1
  39   20   26 2
  40   21   22 1
  41   21   27 1
  42   22   42 1
  43   22   43 1
  44   22   44 1
  45   23   24 2
  46   23   45 1
  47   24   25 1
  48   25   26 1
  49   25   46 1
  50   26   47 1
  51   27   48 1
  52   27   49 1
  53   27   50 1

#	End of record

