#	Name: ASD01840318
#	Creating user name:	WinNT
#	Creation time:	15. 06. 2019 19:37

#	Modifying user name:	WinNT
#	Modification time:	15. 06. 2019 19:37

#	Program:	/corina/corina34_cracker 3.40 0067  02.08.2006

@<TRIPOS>MOLECULE
ASD01840318
  55   59    0    0    0
SMALL
NO_CHARGES


@<TRIPOS>ATOM
   1 C1            -0.0945     1.7268     0.8853 C.3     
   2 N2             0.0021     0.2740     0.7232 N.am    
   3 C3            -1.1243    -0.6360     0.4869 C.3     
   4 C4            -0.5350    -2.0213     0.3879 C.ar    
   5 C5            -1.0868    -3.2649     0.1771 C.ar    
   6 C6            -0.2778    -4.3852     0.1351 C.ar    
   7 C7             1.1010    -4.2583     0.3063 C.ar    
   8 C8             1.6639    -3.0034     0.5201 C.ar    
   9 C9             0.8448    -1.8764     0.5614 C.ar    
  10 C10            1.1379    -0.4438     0.7608 C.2     
  11 O11            2.2475     0.0205     0.9358 O.2     
  12 C12            1.9667    -5.4603     0.2609 C.ar    
  13 N13            3.1078    -5.4257    -0.4130 N.ar    
  14 C14            3.9063    -6.4717    -0.4782 C.ar    
  15 C15            5.1914    -6.3744    -1.2593 C.3     
  16 C16            3.5860    -7.6578     0.1583 C.ar    
  17 C17            2.4053    -7.7490     0.8766 C.ar    
  18 C18            1.5765    -6.6275     0.9367 C.ar    
  19 C19            0.3040    -6.6696     1.6964 C.2     
  20 C20           -0.8239    -7.4587     1.3937 C.2     
  21 N21           -1.7414    -7.2193     2.2918 N.2     
  22 N22           -1.2486    -6.2762     3.2010 N.pl3   
  23 C23           -1.9705    -5.7415     4.3582 C.3     
  24 C24           -1.8102    -6.6945     5.5443 C.3     
  25 C25           -0.3508    -6.6737     6.0630 C.3     
  26 C26           -0.5019    -7.1532     7.5280 C.3     
  27 C27           -1.8139    -6.4982     8.0070 C.3     
  28 C28           -2.6457    -6.2066     6.7458 C.3     
  29 C29            0.0070    -5.9488     2.8331 C.2     
  30 F30            0.8222    -5.0734     3.4611 F       
  31 H31            0.9010     2.1418     1.0426 H       
  32 H32           -0.5329     2.1641    -0.0118 H       
  33 H33           -0.7236     1.9553     1.7456 H       
  34 H34           -1.8267    -0.5864     1.3190 H       
  35 H35           -1.6271    -0.3754    -0.4444 H       
  36 H36           -2.1539    -3.3655     0.0447 H       
  37 H37           -0.7135    -5.3595    -0.0301 H       
  38 H38            2.7310    -2.9033     0.6536 H       
  39 H39            5.9904    -6.0300    -0.6028 H       
  40 H40            5.4479    -7.3548    -1.6605 H       
  41 H41            5.0653    -5.6678    -2.0796 H       
  42 H42            4.2514    -8.5061     0.0951 H       
  43 H43            2.1343    -8.6645     1.3813 H       
  44 H44           -0.9138    -8.1428     0.5629 H       
  45 H45           -1.5646    -4.7643     4.6198 H       
  46 H46           -3.0278    -5.6418     4.1125 H       
  47 H47           -2.1024    -7.7060     5.2620 H       
  48 H48            0.2716    -7.3635     5.4930 H       
  49 H49            0.0574    -5.6637     6.0272 H       
  50 H50           -0.5813    -8.2396     7.5675 H       
  51 H51            0.3386    -6.8090     8.1306 H       
  52 H52           -2.3551    -7.1815     8.6615 H       
  53 H53           -1.5966    -5.5692     8.5341 H       
  54 H54           -2.8321    -5.1360     6.6608 H       
  55 H55           -3.5906    -6.7483     6.7881 H       
@<TRIPOS>BOND
   1    1    2 1
   2    1   31 1
   3    1   32 1
   4    1   33 1
   5    2   10 am
   6    2    3 1
   7    3    4 1
   8    3   34 1
   9    3   35 1
  10    4    9 ar
  11    4    5 ar
  12    5    6 ar
  13    5   36 1
  14    6    7 ar
  15    6   37 1
  16    7    8 ar
  17    7   12 1
  18    8    9 ar
  19    8   38 1
  20    9   10 1
  21   10   11 2
  22   12   18 ar
  23   12   13 ar
  24   13   14 ar
  25   14   15 1
  26   14   16 ar
  27   15   39 1
  28   15   40 1
  29   15   41 1
  30   16   17 ar
  31   16   42 1
  32   17   18 ar
  33   17   43 1
  34   18   19 1
  35   19   29 2
  36   19   20 1
  37   20   21 2
  38   20   44 1
  39   21   22 1
  40   22   23 1
  41   22   29 1
  42   23   24 1
  43   23   45 1
  44   23   46 1
  45   24   28 1
  46   24   25 1
  47   24   47 1
  48   25   26 1
  49   25   48 1
  50   25   49 1
  51   26   27 1
  52   26   50 1
  53   26   51 1
  54   27   28 1
  55   27   52 1
  56   27   53 1
  57   28   54 1
  58   28   55 1
  59   29   30 1

#	End of record

