#	Name: ASD01811257
#	Creating user name:	WinNT
#	Creation time:	15. 06. 2019 19:26

#	Modifying user name:	WinNT
#	Modification time:	15. 06. 2019 19:26

#	Program:	/corina/corina34_cracker 3.40 0067  02.08.2006

@<TRIPOS>MOLECULE
ASD01811257
  18   18    0    0    0
SMALL
NO_CHARGES


@<TRIPOS>ATOM
   1 C1            -0.0184     1.5028     0.0103 C.2     
   2 C2             0.0021    -0.0041     0.0020 C.3     
   3 O3            -1.1251     3.6309     0.3546 O.3     
   4 C4            -1.3334     2.2384     0.0331 C.3     
   5 C5            -1.9680     2.2492    -1.3753 C.3     
   6 C6            -2.6214     3.6453    -1.4820 C.3     
   7 C7            -2.3042     4.3128    -0.1254 C.3     
   8 Br8            1.8643    -0.6341    -0.0191 Br      
   9 O9             1.0191     2.1207     0.0037 O.2     
  10 H10           -0.4983    -0.3791     0.8948 H       
  11 H11           -0.5153    -0.3696    -0.8850 H       
  12 H12           -2.0129     1.7805     0.7519 H       
  13 H13           -1.2015     2.1267    -2.1405 H       
  14 H14           -2.7224     1.4670    -1.4603 H       
  15 H15           -2.1779     4.2130    -2.3000 H       
  16 H16           -3.6987     3.5533    -1.6198 H       
  17 H17           -3.1326     4.1731     0.5691 H       
  18 H18           -2.0988     5.3743    -0.2637 H       
@<TRIPOS>BOND
   1    1    2 1
   2    1    9 2
   3    1    4 1
   4    2    8 1
   5    2   10 1
   6    2   11 1
   7    3    4 1
   8    3    7 1
   9    4    5 1
  10    4   12 1
  11    5    6 1
  12    5   13 1
  13    5   14 1
  14    6    7 1
  15    6   15 1
  16    6   16 1
  17    7   17 1
  18    7   18 1

#	End of record

