#	Name: ASD03090486
#	Creating user name:	WinNT
#	Creation time:	15. 06. 2019 20:28

#	Modifying user name:	WinNT
#	Modification time:	15. 06. 2019 20:28

#	Program:	/corina/corina34_cracker 3.40 0067  02.08.2006

@<TRIPOS>MOLECULE
ASD03090486
  36   38    0    0    0
SMALL
NO_CHARGES


@<TRIPOS>ATOM
   1 C1            -0.0181     1.5035     0.0014 C.2     
   2 C2             0.0032    -0.0033    -0.0069 C.3     
   3 O3             1.0234     2.1248    -0.0132 O.2     
   4 N4            -1.1946     2.1607     0.0195 N.am    
   5 C5            -1.2153     3.5519     0.1325 C.ar    
   6 C6            -2.4241     4.2314     0.0364 C.ar    
   7 C7            -2.4332     5.6101     0.1499 C.ar    
   8 C8            -1.2229     6.2666     0.3572 C.ar    
   9 C9            -0.0567     5.5234     0.4425 C.ar    
  10 N10           -0.0848     4.2086     0.3352 N.ar    
  11 O11           -1.1858     7.6209     0.4740 O.3     
  12 C12            0.0947     8.2190     0.6853 C.3     
  13 F13            0.9362     7.9112    -0.3891 F       
  14 F14           -0.0494     9.6072     0.7820 F       
  15 F15            0.6507     7.7242     1.8698 F       
  16 N16            4.2525    -1.4407    -2.2878 N.pl3   
  17 C17            5.4503    -1.8450    -1.7644 C.2     
  18 C18            5.3940    -1.8244    -0.4234 C.2     
  19 C19            4.0501    -1.3698    -0.0582 C.ar    
  20 C20            3.3972    -1.1478     1.1559 C.ar    
  21 C21            2.1025    -0.7115     1.1599 C.ar    
  22 C22            1.4308    -0.4854    -0.0339 C.ar    
  23 C23            2.0560    -0.6976    -1.2429 C.ar    
  24 C24            3.3739    -1.1426    -1.2705 C.ar    
  25 H25           -0.4900    -0.3786     0.8898 H       
  26 H26           -0.5206    -0.3693    -0.8899 H       
  27 H27           -2.0270     1.6670    -0.0461 H       
  28 H28           -3.3445     3.6900    -0.1251 H       
  29 H29           -3.3574     6.1643     0.0790 H       
  30 H30            0.8858     6.0258     0.6029 H       
  31 H31            4.0533    -1.3706    -3.2346 H       
  32 H32            6.3132    -2.1376    -2.3443 H       
  33 H33            6.1886    -2.0922     0.2572 H       
  34 H34            3.9133    -1.3216     2.0886 H       
  35 H35            1.5978    -0.5403     2.0992 H       
  36 H36            1.5249    -0.5192    -2.1662 H       
@<TRIPOS>BOND
   1    1    2 1
   2    1    3 2
   3    1    4 am
   4    2   22 1
   5    2   25 1
   6    2   26 1
   7    4    5 1
   8    4   27 1
   9    5    6 ar
  10    5   10 ar
  11    6    7 ar
  12    6   28 1
  13    7    8 ar
  14    7   29 1
  15    8    9 ar
  16    8   11 1
  17    9   10 ar
  18    9   30 1
  19   11   12 1
  20   12   13 1
  21   12   14 1
  22   12   15 1
  23   16   17 1
  24   16   24 1
  25   16   31 1
  26   17   18 2
  27   17   32 1
  28   18   19 1
  29   18   33 1
  30   19   20 ar
  31   19   24 ar
  32   20   21 ar
  33   20   34 1
  34   21   22 ar
  35   21   35 1
  36   22   23 ar
  37   23   24 ar
  38   23   36 1

#	End of record

