#	Name: ASD02560259
#	Creating user name:	WinNT
#	Creation time:	15. 06. 2019 20:24

#	Modifying user name:	WinNT
#	Modification time:	15. 06. 2019 20:24

#	Program:	/corina/corina34_cracker 3.40 0067  02.08.2006

@<TRIPOS>MOLECULE
ASD02560259
  32   34    0    0    0
SMALL
NO_CHARGES


@<TRIPOS>ATOM
   1 C1            -0.0093     1.3381     0.0878 C.2     
   2 O2            -0.0095     0.0042    -0.1012 O.3     
   3 C3            -1.2759    -0.4057     0.0989 C.2     
   4 N4            -1.9861     0.6556     0.3941 N.2     
   5 N5            -1.2237     1.6920     0.3915 N.2     
   6 N6            -1.7414    -1.7055     0.0091 N.pl3   
   7 C7             1.1827     2.2532    -0.0255 C.3     
   8 C8             1.8612     2.3627     1.3157 C.ar    
   9 C9             2.8655     1.4760     1.6564 C.ar    
  10 C10            3.4881     1.5760     2.8863 C.ar    
  11 C11            3.1061     2.5637     3.7765 C.ar    
  12 C12            2.1009     3.4509     3.4350 C.ar    
  13 C13            1.4829     3.3535     2.2025 C.ar    
  14 C14           -3.1099    -1.9676     0.1264 C.ar    
  15 C15           -4.0377    -1.0110    -0.2654 C.ar    
  16 C16           -5.3887    -1.2728    -0.1489 C.ar    
  17 C17           -5.8184    -2.4868     0.3575 C.ar    
  18 C18           -4.8963    -3.4418     0.7486 C.ar    
  19 C19           -3.5441    -3.1874     0.6294 C.ar    
  20 Cl20          -7.5174    -2.8123     0.5031 Cl      
  21 Cl21           3.8873     2.6896     5.3217 Cl      
  22 H22           -1.1185    -2.4349    -0.1352 H       
  23 H23            1.8837     1.8481    -0.7552 H       
  24 H24            0.8532     3.2409    -0.3477 H       
  25 H25            3.1634     0.7047     0.9616 H       
  26 H26            4.2725     0.8829     3.1526 H       
  27 H27            1.8023     4.2222     4.1294 H       
  28 H28            0.6982     4.0459     1.9358 H       
  29 H29           -3.7029    -0.0632    -0.6604 H       
  30 H30           -6.1105    -0.5292    -0.4530 H       
  31 H31           -5.2344    -4.3883     1.1438 H       
  32 H32           -2.8249    -3.9331     0.9344 H       
@<TRIPOS>BOND
   1    1    2 1
   2    1    7 1
   3    1    5 2
   4    2    3 1
   5    3    4 2
   6    3    6 1
   7    4    5 1
   8    6   14 1
   9    6   22 1
  10    7    8 1
  11    7   23 1
  12    7   24 1
  13    8    9 ar
  14    8   13 ar
  15    9   10 ar
  16    9   25 1
  17   10   11 ar
  18   10   26 1
  19   11   12 ar
  20   11   21 1
  21   12   13 ar
  22   12   27 1
  23   13   28 1
  24   14   15 ar
  25   14   19 ar
  26   15   16 ar
  27   15   29 1
  28   16   17 ar
  29   16   30 1
  30   17   18 ar
  31   17   20 1
  32   18   19 ar
  33   18   31 1
  34   19   32 1

#	End of record

