#	Name: ASD03090588
#	Creating user name:	WinNT
#	Creation time:	15. 06. 2019 20:29

#	Modifying user name:	WinNT
#	Modification time:	15. 06. 2019 20:29

#	Program:	/corina/corina34_cracker 3.40 0067  02.08.2006

@<TRIPOS>MOLECULE
ASD03090588
  32   33    0    0    0
SMALL
NO_CHARGES


@<TRIPOS>ATOM
   1 N1            -0.0162     1.3436     0.0094 N.am    
   2 C2             0.0193     0.1477     0.6299 C.2     
   3 O3             1.0728    -0.2853     1.0557 O.2     
   4 N4            -1.1128    -0.5683     0.7786 N.am    
   5 S5            -2.4312    -2.8124     1.6753 S.3     
   6 C6            -1.0762    -1.8021     1.4187 C.2     
   7 N7            -0.0100    -2.3530     1.9074 N.2     
   8 C8            -0.1570    -3.5323     2.4842 C.2     
   9 C9            -1.4081    -3.9984     2.4816 C.2     
  10 Cl10          -1.9348    -5.5089     3.1559 Cl      
  11 C11            1.1453     2.1273    -0.0707 C.ar    
  12 C12            1.0453     3.5107    -0.1993 C.ar    
  13 C13            2.1929     4.2818    -0.2777 C.ar    
  14 C14            3.4395     3.6760    -0.2282 C.ar    
  15 C15            3.5379     2.2978    -0.1001 C.ar    
  16 C16            2.3934     1.5258    -0.0163 C.ar    
  17 O17            4.5664     4.4333    -0.3057 O.3     
  18 C18            4.3913     5.8455    -0.4369 C.3     
  19 O19           -0.1779     4.1032    -0.2481 O.3     
  20 C20           -0.2047     5.5258    -0.3807 C.3     
  21 Cl21           5.0996     1.5421    -0.0390 Cl      
  22 H22           -0.8435     1.6608    -0.3852 H       
  23 H23           -1.9532    -0.2229     0.4389 H       
  24 H24            0.6677    -4.0754     2.9215 H       
  25 H25            2.1171     5.3545    -0.3777 H       
  26 H26            2.4719     0.4537     0.0878 H       
  27 H27            3.8317     6.0591    -1.3476 H       
  28 H28            3.8420     6.2251     0.4246 H       
  29 H29            5.3667     6.3293    -0.4879 H       
  30 H30           -1.2390     5.8688    -0.4072 H       
  31 H31            0.3069     5.9796     0.4682 H       
  32 H32            0.2975     5.8142    -1.3041 H       
@<TRIPOS>BOND
   1    1    2 am
   2    1   11 1
   3    1   22 1
   4    2    3 2
   5    2    4 am
   6    4    6 1
   7    4   23 1
   8    5    6 1
   9    5    9 1
  10    6    7 2
  11    7    8 1
  12    8    9 2
  13    8   24 1
  14    9   10 1
  15   11   12 ar
  16   11   16 ar
  17   12   13 ar
  18   12   19 1
  19   13   14 ar
  20   13   25 1
  21   14   15 ar
  22   14   17 1
  23   15   16 ar
  24   15   21 1
  25   16   26 1
  26   17   18 1
  27   18   27 1
  28   18   28 1
  29   18   29 1
  30   19   20 1
  31   20   30 1
  32   20   31 1
  33   20   32 1

#	End of record

