#	Name: ASD01810071
#	Creating user name:	WinNT
#	Creation time:	15. 06. 2019 19:23

#	Modifying user name:	WinNT
#	Modification time:	15. 06. 2019 19:23

#	Program:	/corina/corina34_cracker 3.40 0067  02.08.2006

@<TRIPOS>MOLECULE
ASD01810071
  51   52    0    0    0
SMALL
NO_CHARGES


@<TRIPOS>ATOM
   1 C1            -0.0370     1.3086    -0.2110 C.ar    
   2 C2             0.0241     0.0045     0.2466 C.ar    
   3 C3             1.2487    -0.6062     0.4526 C.ar    
   4 C4             2.4172     0.0825     0.2019 C.ar    
   5 C5             2.3625     1.3986    -0.2605 C.ar    
   6 C6             1.1243     2.0088    -0.4656 C.ar    
   7 C7             3.6110     2.1430    -0.5308 C.2     
   8 N8             3.5592     3.4496    -0.8572 N.am    
   9 C9             4.7963     4.1872    -1.1251 C.3     
  10 C10            4.4597     5.6395    -1.4695 C.3     
  11 N11            5.7002     6.3791    -1.7381 N.3     
  12 C12            5.4153     7.7807    -2.0731 C.3     
  13 O13            4.6840     1.5766    -0.4586 O.2     
  14 C14            6.6356     8.6425    -1.7410 C.3     
  15 C15            6.3227    10.1080    -2.0592 C.3     
  16 N16            5.8784    10.2040    -3.4564 N.am    
  17 C17            4.7696     9.3510    -3.9054 C.3     
  18 C18            5.0999     7.8940    -3.5664 C.3     
  19 C19            6.4764    11.0587    -4.3099 C.2     
  20 O20            6.0590    11.1364    -5.5876 O.3     
  21 O21            7.3922    11.7592    -3.9263 O.2     
  22 C22            6.7490    12.0787    -6.4503 C.3     
  23 C23            6.1402    12.0261    -7.8530 C.3     
  24 C24            3.7498    -0.5840     0.4272 C.3     
  25 H25           -0.9959     1.7781    -0.3737 H       
  26 H26           -0.8878    -0.5391     0.4444 H       
  27 H27            1.2895    -1.6243     0.8107 H       
  28 H28            1.0752     3.0266    -0.8235 H       
  29 H29            2.7029     3.9015    -0.9149 H       
  30 H30            5.4332     4.1618    -0.2409 H       
  31 H31            5.3196     3.7269    -1.9632 H       
  32 H32            3.8229     5.6649    -2.3537 H       
  33 H33            3.9364     6.0998    -0.6314 H       
  34 H34            6.3352     6.3161    -0.9565 H       
  35 H35            4.5587     8.1257    -1.4941 H       
  36 H36            6.8738     8.5431    -0.6820 H       
  37 H37            7.4863     8.3142    -2.3381 H       
  38 H38            5.5320    10.4645    -1.3990 H       
  39 H39            7.2191    10.7119    -1.9185 H       
  40 H40            3.8523     9.6458    -3.3957 H       
  41 H41            4.6413     9.4555    -4.9827 H       
  42 H42            5.9651     7.5727    -4.1464 H       
  43 H43            4.2451     7.2618    -3.8067 H       
  44 H44            6.6439    13.0855    -6.0462 H       
  45 H45            7.8057    11.8167    -6.5028 H       
  46 H46            6.6581    12.7334    -8.5007 H       
  47 H47            6.2453    11.0192    -8.2571 H       
  48 H48            5.0834    12.2881    -7.8005 H       
  49 H49            4.1209    -0.9828    -0.5169 H       
  50 H50            4.4596     0.1454     0.8175 H       
  51 H51            3.6330    -1.3968     1.1441 H       
@<TRIPOS>BOND
   1    1    2 ar
   2    1    6 ar
   3    1   25 1
   4    2    3 ar
   5    2   26 1
   6    3    4 ar
   7    3   27 1
   8    4    5 ar
   9    4   24 1
  10    5    6 ar
  11    5    7 1
  12    6   28 1
  13    7    8 am
  14    7   13 2
  15    8    9 1
  16    8   29 1
  17    9   10 1
  18    9   30 1
  19    9   31 1
  20   10   11 1
  21   10   32 1
  22   10   33 1
  23   11   12 1
  24   11   34 1
  25   12   14 1
  26   12   18 1
  27   12   35 1
  28   14   15 1
  29   14   36 1
  30   14   37 1
  31   15   16 1
  32   15   38 1
  33   15   39 1
  34   16   17 1
  35   16   19 am
  36   17   18 1
  37   17   40 1
  38   17   41 1
  39   18   42 1
  40   18   43 1
  41   19   20 1
  42   19   21 2
  43   20   22 1
  44   22   23 1
  45   22   44 1
  46   22   45 1
  47   23   46 1
  48   23   47 1
  49   23   48 1
  50   24   49 1
  51   24   50 1
  52   24   51 1

#	End of record

