#	Name: ASD03430458
#	Creating user name:	WinNT
#	Creation time:	15. 06. 2019 20:41

#	Modifying user name:	WinNT
#	Modification time:	15. 06. 2019 20:41

#	Program:	/corina/corina34_cracker 3.40 0067  02.08.2006

@<TRIPOS>MOLECULE
ASD03430458
  35   38    0    0    0
SMALL
NO_CHARGES


@<TRIPOS>ATOM
   1 N1            -0.0162     1.3400     0.0094 N.am    
   2 C2             0.0021    -0.0041     0.0020 C.2     
   3 C3             1.4376    -0.4368    -0.0138 C.2     
   4 C4             2.2107     0.8150    -0.0139 C.ar    
   5 C5             3.5814     1.0885    -0.0237 C.ar    
   6 C6             4.0211     2.3980    -0.0199 C.ar    
   7 C7             3.0972     3.4427    -0.0090 C.ar    
   8 C8             1.7329     3.1733     0.0019 C.ar    
   9 C9             1.2767     1.8652    -0.0001 C.ar    
  10 O10            5.3597     2.6505    -0.0226 O.3     
  11 O11            3.5156     4.7362    -0.0128 O.3     
  12 C12            4.8772     4.9744     0.3588 C.3     
  13 C13            5.7638     3.9729    -0.3936 C.3     
  14 O14           -0.9667    -0.7342     0.0072 O.2     
  15 O15            1.8679    -1.5721    -0.0242 O.2     
  16 C16           -1.2370     2.1497     0.0198 C.3     
  17 O17           -2.4645     1.6530     2.1850 O.3     
  18 C18           -1.6483     2.4202     1.4441 C.2     
  19 C19           -1.2599     3.4706     2.1891 C.2     
  20 C20           -1.8783     3.3278     3.4525 C.2     
  21 C21           -2.6076     2.1985     3.4039 C.2     
  22 C22           -3.4435     1.6403     4.5267 C.3     
  23 F23           -4.7411     2.1565     4.4434 F       
  24 F24           -3.4890     0.2457     4.4253 F       
  25 F25           -2.8763     2.0003     5.7539 F       
  26 H26            4.2951     0.2779    -0.0340 H       
  27 H27            1.0249     3.9887     0.0121 H       
  28 H28            5.1596     5.9916     0.0873 H       
  29 H29            4.9947     4.8342     1.4333 H       
  30 H30            6.8075     4.1286    -0.1208 H       
  31 H31            5.6400     4.1073    -1.4682 H       
  32 H32           -1.0504     3.0948    -0.4902 H       
  33 H33           -2.0343     1.6115    -0.4928 H       
  34 H34           -0.6015     4.2696     1.8815 H       
  35 H35           -1.7831     3.9967     4.2950 H       
@<TRIPOS>BOND
   1    1    2 am
   2    1    9 1
   3    1   16 1
   4    2    3 1
   5    2   14 2
   6    3    4 1
   7    3   15 2
   8    4    5 ar
   9    4    9 ar
  10    5    6 ar
  11    5   26 1
  12    6    7 ar
  13    6   10 1
  14    7    8 ar
  15    7   11 1
  16    8    9 ar
  17    8   27 1
  18   10   13 1
  19   11   12 1
  20   12   13 1
  21   12   28 1
  22   12   29 1
  23   13   30 1
  24   13   31 1
  25   16   18 1
  26   16   32 1
  27   16   33 1
  28   17   18 1
  29   17   21 1
  30   18   19 2
  31   19   20 1
  32   19   34 1
  33   20   21 2
  34   20   35 1
  35   21   22 1
  36   22   23 1
  37   22   24 1
  38   22   25 1

#	End of record

