#	Name: ASD02500016
#	Creating user name:	WinNT
#	Creation time:	15. 06. 2019 20:22

#	Modifying user name:	WinNT
#	Modification time:	15. 06. 2019 20:22

#	Program:	/corina/corina34_cracker 3.40 0067  02.08.2006

@<TRIPOS>MOLECULE
ASD02500016
  42   45    0    0    0
SMALL
NO_CHARGES


@<TRIPOS>ATOM
   1 C1             0.5373     0.7632    -0.7292 C.ar    
   2 C2             0.6616    -0.6164    -0.5599 C.ar    
   3 C3             1.8518    -1.1938    -0.2546 C.ar    
   4 C4             2.9993    -0.3862    -0.1022 C.ar    
   5 C5             2.8679     1.0648    -0.2805 C.ar    
   6 C6             1.6009     1.5971    -0.5970 C.ar    
   7 N7             4.1791    -0.9193     0.1969 N.ar    
   8 C8             5.2388    -0.1302     0.3335 C.ar    
   9 C9             5.1048     1.3200     0.1547 C.ar    
  10 N10            3.9299     1.8543    -0.1430 N.ar    
  11 C11            6.5086    -0.6609     0.6515 C.ar    
  12 C12            7.5832     0.1561     0.7887 C.ar    
  13 C13            7.5007     1.5354     0.6284 C.ar    
  14 C14            6.3008     2.1527     0.3153 C.ar    
  15 C15            1.4282     3.0821    -0.7867 C.3     
  16 C16            6.2278     3.6152     0.1478 C.2     
  17 N17            7.3362     4.3669     0.2992 N.am    
  18 O18            5.1676     4.1436    -0.1271 O.2     
  19 C19            7.2931     5.7317     0.0317 C.ar    
  20 C20            8.3440     6.3474    -0.6657 C.ar    
  21 C21            8.2881     7.7190    -0.9277 C.ar    
  22 C22            7.2053     8.4564    -0.5013 C.ar    
  23 C23            6.1695     7.8454     0.1875 C.ar    
  24 C24            6.2072     6.4907     0.4485 C.ar    
  25 C25            9.4994     5.5526    -1.1185 C.2     
  26 O26           10.5427     6.1606    -1.7165 O.3     
  27 O27            9.5113     4.3489    -0.9526 O.2     
  28 H28           -0.4289     1.1779    -0.9761 H       
  29 H29           -0.2119    -1.2411    -0.6744 H       
  30 H30            1.9201    -2.2643    -0.1287 H       
  31 H31            6.6250    -1.7260     0.7870 H       
  32 H32            8.5400    -0.2816     1.0323 H       
  33 H33            8.3895     2.1367     0.7503 H       
  34 H34            1.5930     3.3361    -1.8338 H       
  35 H35            0.4175     3.3702    -0.4977 H       
  36 H36            2.1492     3.6139    -0.1659 H       
  37 H37            8.1640     3.9565     0.5946 H       
  38 H38            9.0928     8.2003    -1.4635 H       
  39 H39            7.1636     9.5163    -0.7046 H       
  40 H40            5.3251     8.4321     0.5179 H       
  41 H41            5.3960     6.0221     0.9858 H       
  42 H42           11.2775     5.5977    -1.9962 H       
@<TRIPOS>BOND
   1    1    2 ar
   2    1    6 ar
   3    1   28 1
   4    2    3 ar
   5    2   29 1
   6    3    4 ar
   7    3   30 1
   8    4    5 ar
   9    4    7 ar
  10    5    6 ar
  11    5   10 ar
  12    6   15 1
  13    7    8 ar
  14    8    9 ar
  15    8   11 ar
  16    9   10 ar
  17    9   14 ar
  18   11   12 ar
  19   11   31 1
  20   12   13 ar
  21   12   32 1
  22   13   14 ar
  23   13   33 1
  24   14   16 1
  25   15   34 1
  26   15   35 1
  27   15   36 1
  28   16   17 am
  29   16   18 2
  30   17   19 1
  31   17   37 1
  32   19   20 ar
  33   19   24 ar
  34   20   21 ar
  35   20   25 1
  36   21   22 ar
  37   21   38 1
  38   22   23 ar
  39   22   39 1
  40   23   24 ar
  41   23   40 1
  42   24   41 1
  43   25   26 1
  44   25   27 2
  45   26   42 1

#	End of record

