#	Name: ASD01150587
#	Creating user name:	WinNT
#	Creation time:	15. 06. 2019 19:04

#	Modifying user name:	WinNT
#	Modification time:	15. 06. 2019 19:04

#	Program:	/corina/corina34_cracker 3.40 0067  02.08.2006

@<TRIPOS>MOLECULE
ASD01150587
  48   50    0    0    0
SMALL
NO_CHARGES


@<TRIPOS>ATOM
   1 C1             1.9144     1.4015     0.9689 C.ar    
   2 C2             1.9596     0.0212     0.9431 C.ar    
   3 C3             0.4927     0.0046    -0.9572 C.ar    
   4 C4             0.4447     1.3911    -0.9340 C.ar    
   5 C5             1.1564     2.0910     0.0300 C.ar    
   6 N6             1.1107     3.4892     0.0569 N.am    
   7 C7            -0.0778     4.1147    -0.0076 C.2     
   8 N8            -0.1587     5.4581     0.0163 N.am    
   9 C9             0.9638     6.2012     0.1062 C.2     
  10 C10            2.2670     5.5230     0.1772 C.2     
  11 N11            2.3025     4.2167     0.1565 N.2     
  12 O12            0.8990     7.4163     0.1280 O.2     
  13 C13           -1.4667     6.1140    -0.0560 C.3     
  14 O14           -1.0967     3.4557    -0.0894 O.2     
  15 C15           -2.0173     6.3109     1.3579 C.3     
  16 O16            3.4153     6.2431     0.2679 O.3     
  17 C17            4.6388     5.5076     0.3324 C.3     
  18 C18            1.2519    -0.6785    -0.0156 C.ar    
  19 N19           -0.2232    -0.7049    -1.9279 N.am    
  20 C20            0.2667    -1.8622    -2.4148 C.2     
  21 C21           -0.5544    -2.6831    -3.3754 C.3     
  22 O22            1.3685    -2.2429    -2.0798 O.2     
  23 C23           -3.3628     6.9856     1.2836 C.ar    
  24 C24           -4.5132     6.2248     1.1909 C.ar    
  25 C25           -5.7474     6.8436     1.1227 C.ar    
  26 C26           -5.8312     8.2232     1.1476 C.ar    
  27 C27           -4.6808     8.9840     1.2412 C.ar    
  28 C28           -3.4469     8.3650     1.3138 C.ar    
  29 H29            2.4650     1.9453     1.7222 H       
  30 H30            2.5496    -0.5123     1.6737 H       
  31 H31           -0.1451     1.9245    -1.6648 H       
  32 H32           -1.3607     7.0834    -0.5429 H       
  33 H33           -2.1537     5.4922    -0.6300 H       
  34 H34           -2.1233     5.3415     1.8448 H       
  35 H35           -1.3303     6.9327     1.9319 H       
  36 H36            4.6284     4.8612     1.2100 H       
  37 H37            4.7448     4.8992    -0.5658 H       
  38 H38            5.4766     6.2014     0.4022 H       
  39 H39            1.2893    -1.7577    -0.0330 H       
  40 H40           -1.0720    -0.3637    -2.2503 H       
  41 H41           -0.7695    -2.0928    -4.2661 H       
  42 H42            0.0022    -3.5768    -3.6575 H       
  43 H43           -1.4900    -2.9736    -2.8974 H       
  44 H44           -4.4478     5.1470     1.1715 H       
  45 H45           -6.6462     6.2493     1.0496 H       
  46 H46           -6.7955     8.7067     1.0936 H       
  47 H47           -4.7463    10.0618     1.2603 H       
  48 H48           -2.5481     8.9594     1.3869 H       
@<TRIPOS>BOND
   1    1    2 ar
   2    1    5 ar
   3    1   29 1
   4    2   18 ar
   5    2   30 1
   6    3    4 ar
   7    3   19 1
   8    3   18 ar
   9    4    5 ar
  10    4   31 1
  11    5    6 1
  12    6    7 am
  13    6   11 1
  14    7    8 am
  15    7   14 2
  16    8    9 am
  17    8   13 1
  18    9   10 1
  19    9   12 2
  20   10   11 2
  21   10   16 1
  22   13   15 1
  23   13   32 1
  24   13   33 1
  25   15   23 1
  26   15   34 1
  27   15   35 1
  28   16   17 1
  29   17   36 1
  30   17   37 1
  31   17   38 1
  32   18   39 1
  33   19   20 am
  34   19   40 1
  35   20   21 1
  36   20   22 2
  37   21   41 1
  38   21   42 1
  39   21   43 1
  40   23   24 ar
  41   23   28 ar
  42   24   25 ar
  43   24   44 1
  44   25   26 ar
  45   25   45 1
  46   26   27 ar
  47   26   46 1
  48   27   28 ar
  49   27   47 1
  50   28   48 1

#	End of record

