#	Name: ASD01811394
#	Creating user name:	WinNT
#	Creation time:	15. 06. 2019 19:26

#	Modifying user name:	WinNT
#	Modification time:	15. 06. 2019 19:26

#	Program:	/corina/corina34_cracker 3.40 0067  02.08.2006

@<TRIPOS>MOLECULE
ASD01811394
  66   69    0    0    0
SMALL
NO_CHARGES


@<TRIPOS>ATOM
   1 C1            -0.1803     1.4914     1.1601 C.2     
   2 C2            -0.2108     0.0431     1.4379 C.ar    
   3 C3             0.9834    -0.6872     1.5416 C.ar    
   4 C4             0.9078    -2.0288     1.8009 C.ar    
   5 C5            -0.3423    -2.6266     1.9532 C.ar    
   6 N6            -1.4557    -1.9137     1.8499 N.ar    
   7 C7            -1.4274    -0.6198     1.6071 C.ar    
   8 O8             0.8845     2.0611     1.0192 O.2     
   9 N9            -1.3330     2.1821     1.0569 N.am    
  10 N10           -0.4226    -3.9837     2.2155 N.pl3   
  11 C11            0.8009    -4.7810     2.3312 C.3     
  12 C12            1.3386    -4.6856     3.7605 C.3     
  13 C13            0.4908    -6.2420     1.9995 C.3     
  14 C14           -1.3041     3.5509     0.7998 C.ar    
  15 C15           -2.4894     4.2212     0.5002 C.ar    
  16 C16           -2.4527     5.5802     0.2465 C.ar    
  17 C17           -1.2287     6.2326     0.2995 C.ar    
  18 C18           -0.0833     5.5038     0.6045 C.ar    
  19 N19           -0.1555     4.1999     0.8477 N.ar    
  20 C20           -3.7965     3.4727     0.4529 C.3     
  21 C21            1.2285     6.1897     0.6639 C.2     
  22 O22            1.2885     7.3975     0.5453 O.2     
  23 N23            2.3554     5.4739     0.8495 N.am    
  24 C24            3.6216     6.1429     1.1780 C.3     
  25 C25            4.6898     5.6966     0.1748 C.3     
  26 C26            4.7699     4.1683     0.1672 C.3     
  27 C27            3.4234     3.5874    -0.2706 C.3     
  28 C28            2.3396     4.0094     0.7331 C.3     
  29 C29            5.8435     3.7266    -0.7937 C.ar    
  30 C30            6.9166     2.9843    -0.3335 C.ar    
  31 C31            7.9029     2.5767    -1.2076 C.ar    
  32 C32            7.8162     2.9145    -2.5596 C.ar    
  33 C33            6.7303     3.6635    -3.0173 C.ar    
  34 C34            5.7486     4.0604    -2.1331 C.ar    
  35 C35            8.8366     2.4952    -3.4726 C.1     
  36 N36            9.6461     2.1625    -4.1969 N.1     
  37 H37            1.9402    -0.2015     1.4193 H       
  38 H38            1.8082    -2.6190     1.8863 H       
  39 H39           -2.3530    -0.0681     1.5337 H       
  40 H40           -2.1827     1.7262     1.1618 H       
  41 H41           -1.2890    -4.4065     2.3227 H       
  42 H42            1.5492    -4.4013     1.6355 H       
  43 H43            0.5904    -5.0652     4.4562 H       
  44 H44            2.2490    -5.2788     3.8466 H       
  45 H45            1.5595    -3.6447     3.9968 H       
  46 H46            0.1078    -6.3100     0.9813 H       
  47 H47            1.4012    -6.8353     2.0856 H       
  48 H48           -0.2574    -6.6217     2.6952 H       
  49 H49           -3.3569     6.1221     0.0117 H       
  50 H50           -1.1661     7.2933     0.1061 H       
  51 H51           -4.2567     3.4824     1.4409 H       
  52 H52           -4.4638     3.9518    -0.2635 H       
  53 H53           -3.6144     2.4425     0.1470 H       
  54 H54            3.4908     7.2233     1.1160 H       
  55 H55            3.9295     5.8673     2.1866 H       
  56 H56            4.4249     6.0520    -0.8210 H       
  57 H57            5.6559     6.1101     0.4640 H       
  58 H58            5.0106     3.8123     1.1689 H       
  59 H59            3.1704     3.9626    -1.2622 H       
  60 H60            3.4882     2.4996    -0.2983 H       
  61 H61            2.5452     3.5633     1.7062 H       
  62 H62            1.3628     3.6815     0.3775 H       
  63 H63            6.9824     2.7237     0.7125 H       
  64 H64            8.7404     1.9979    -0.8469 H       
  65 H65            6.6571     3.9282    -4.0618 H       
  66 H66            4.9060     4.6362    -2.4865 H       
@<TRIPOS>BOND
   1    1    2 1
   2    1    8 2
   3    1    9 am
   4    2    3 ar
   5    2    7 ar
   6    3    4 ar
   7    3   37 1
   8    4    5 ar
   9    4   38 1
  10    5    6 ar
  11    5   10 1
  12    6    7 ar
  13    7   39 1
  14    9   14 1
  15    9   40 1
  16   10   11 1
  17   10   41 1
  18   11   12 1
  19   11   13 1
  20   11   42 1
  21   12   43 1
  22   12   44 1
  23   12   45 1
  24   13   46 1
  25   13   47 1
  26   13   48 1
  27   14   15 ar
  28   14   19 ar
  29   15   16 ar
  30   15   20 1
  31   16   17 ar
  32   16   49 1
  33   17   18 ar
  34   17   50 1
  35   18   19 ar
  36   18   21 1
  37   20   51 1
  38   20   52 1
  39   20   53 1
  40   21   22 2
  41   21   23 am
  42   23   24 1
  43   23   28 1
  44   24   25 1
  45   24   54 1
  46   24   55 1
  47   25   26 1
  48   25   56 1
  49   25   57 1
  50   26   27 1
  51   26   29 1
  52   26   58 1
  53   27   28 1
  54   27   59 1
  55   27   60 1
  56   28   61 1
  57   28   62 1
  58   29   30 ar
  59   29   34 ar
  60   30   31 ar
  61   30   63 1
  62   31   32 ar
  63   31   64 1
  64   32   33 ar
  65   32   35 1
  66   33   34 ar
  67   33   65 1
  68   34   66 1
  69   35   36 3

#	End of record

