#	Name: ASD01948092
#	Creating user name:	WinNT
#	Creation time:	15. 06. 2019 20:13

#	Modifying user name:	WinNT
#	Modification time:	15. 06. 2019 20:13

#	Program:	/corina/corina34_cracker 3.40 0067  02.08.2006

@<TRIPOS>MOLECULE
ASD01948092
  29   30    0    0    0
SMALL
NO_CHARGES


@<TRIPOS>ATOM
   1 C1            -0.0188     1.5336     0.0105 C.3     
   2 C2             0.0021    -0.0041     0.0020 C.3     
   3 C3             1.3941     0.0896     0.6488 C.3     
   4 C4             1.5179     1.4762    -0.0045 C.3     
   5 S5            -0.7335     2.2589    -1.4908 S.o2    
   6 O6            -0.7205     3.6777    -1.4140 O.2     
   7 O7            -0.2570     1.5833    -2.6465 O.2     
   8 Cl8           -2.6922     1.7732    -1.4019 Cl      
   9 O9             1.3602     0.1306     2.0768 O.3     
  10 C10            2.5098    -0.4433     2.7022 C.3     
  11 C11            2.3681    -0.3464     4.1994 C.ar    
  12 C12            1.7608    -1.3690     4.9039 C.ar    
  13 C13            1.6308    -1.2800     6.2772 C.ar    
  14 C14            2.1085    -0.1687     6.9462 C.ar    
  15 C15            2.7167     0.8535     6.2418 C.ar    
  16 C16            2.8505     0.7626     4.8690 C.ar    
  17 H17           -0.4309     1.9596     0.9252 H       
  18 H18           -0.7506    -0.4545     0.6490 H       
  19 H19            0.0139    -0.4351    -0.9991 H       
  20 H20            2.1053    -0.6404     0.2621 H       
  21 H21            1.9441     1.4499    -1.0074 H       
  22 H22            1.9889     2.2208     0.6373 H       
  23 H23            2.5963    -1.4905     2.4125 H       
  24 H24            3.4027     0.0961     2.3861 H       
  25 H25            1.3875    -2.2373     4.3812 H       
  26 H26            1.1556    -2.0787     6.8275 H       
  27 H27            2.0063    -0.0989     8.0190 H       
  28 H28            3.0896     1.7220     6.7644 H       
  29 H29            3.3290     1.5596     4.3191 H       
@<TRIPOS>BOND
   1    1    2 1
   2    1    4 1
   3    1    5 1
   4    1   17 1
   5    2    3 1
   6    2   18 1
   7    2   19 1
   8    3    4 1
   9    3    9 1
  10    3   20 1
  11    4   21 1
  12    4   22 1
  13    5    6 2
  14    5    7 2
  15    5    8 1
  16    9   10 1
  17   10   11 1
  18   10   23 1
  19   10   24 1
  20   11   12 ar
  21   11   16 ar
  22   12   13 ar
  23   12   25 1
  24   13   14 ar
  25   13   26 1
  26   14   15 ar
  27   14   27 1
  28   15   16 ar
  29   15   28 1
  30   16   29 1

#	End of record

