#	Name: ASD01410100
#	Creating user name:	WinNT
#	Creation time:	15. 06. 2019 19:16

#	Modifying user name:	WinNT
#	Modification time:	15. 06. 2019 19:16

#	Program:	/corina/corina34_cracker 3.40 0067  02.08.2006

@<TRIPOS>MOLECULE
ASD01410100
  77   81    0    0    0
SMALL
NO_CHARGES


@<TRIPOS>ATOM
   1 C1            -0.0169     1.3986     0.0097 C.ar    
   2 C2             0.0021    -0.0041     0.0020 C.ar    
   3 C3            -1.1620    -0.7093     0.0093 C.ar    
   4 C4            -2.3915    -0.0346     0.0242 C.ar    
   5 C5            -2.4205     1.3756     0.0321 C.ar    
   6 C6            -1.2306     2.0852     0.0308 C.ar    
   7 C7            -3.7366    -0.4728     0.0349 C.2     
   8 C8            -4.5331     0.6294     0.0486 C.2     
   9 N9            -3.7464     1.7584     0.0471 N.pl3   
  10 C10           -6.0046     0.6167     0.0621 C.2     
  11 C11           -4.2036    -1.9056     0.0313 C.3     
  12 C12           -3.6877    -2.6070    -1.2268 C.3     
  13 C13           -4.1618    -4.0617    -1.2305 C.3     
  14 C14           -3.6224    -4.7770     0.0098 C.3     
  15 C15           -4.1383    -4.0756     1.2679 C.3     
  16 C16           -3.6642    -2.6210     1.2715 C.3     
  17 C17            1.2512     2.1499     0.0017 C.2     
  18 O18            2.4257     1.4892    -0.0131 O.3     
  19 C19           -4.2357     3.1392     0.0592 C.3     
  20 C20           -4.3897     3.6050     1.4842 C.2     
  21 N21           -4.8298     4.8526     1.7414 N.am    
  22 O22            1.2376     3.3650     0.0083 O.2     
  23 O23           -4.1175     2.8572     2.3994 O.2     
  24 C24           -4.9850     5.3211     3.1253 C.3     
  25 C25           -6.4102     5.8522     3.3092 C.3     
  26 C26           -6.6936     6.9188     2.2489 C.3     
  27 C27           -6.5862     6.2962     0.8550 C.3     
  28 C28           -5.1577     5.7721     0.6433 C.3     
  29 N29           -8.0478     7.4539     2.4429 N.3     
  30 C30           -8.3128     8.5638     1.5177 C.3     
  31 C31           -9.0573     6.3965     2.2993 C.3     
  32 C32           -6.6993     0.6030     1.3926 C.3     
  33 C33           -8.1634     1.0154     1.2265 C.3     
  34 C34           -8.7769     0.1868     0.0912 C.3     
  35 C35           -8.1295     0.6152    -1.2274 C.3     
  36 C36           -6.6347     0.6233    -1.0920 C.2     
  37 H37            0.9465    -0.5277    -0.0102 H       
  38 H38           -1.1389    -1.7891     0.0033 H       
  39 H39           -1.2430     3.1651     0.0368 H       
  40 H40           -5.2932    -1.9326     0.0414 H       
  41 H41           -4.0720    -2.0973    -2.1103 H       
  42 H42           -2.5981    -2.5799    -1.2369 H       
  43 H43           -5.2515    -4.0887    -1.2203 H       
  44 H44           -3.7943    -4.5613    -2.1268 H       
  45 H45           -3.9602    -5.8134     0.0071 H       
  46 H46           -2.5328    -4.7500    -0.0004 H       
  47 H47           -5.2279    -4.1027     1.2780 H       
  48 H48           -3.7540    -4.5853     2.1514 H       
  49 H49           -2.5745    -2.5939     1.2614 H       
  50 H50           -4.0317    -2.1213     2.1678 H       
  51 H51            3.2308     2.0249    -0.0179 H       
  52 H52           -3.5232     3.7817    -0.4581 H       
  53 H53           -5.2009     3.1871    -0.4450 H       
  54 H54           -4.8120     4.4933     3.8129 H       
  55 H55           -4.2694     6.1191     3.3234 H       
  56 H56           -7.1206     5.0328     3.1999 H       
  57 H57           -6.5098     6.2907     4.3021 H       
  58 H58           -5.9674     7.7262     2.3429 H       
  59 H59           -7.2950     5.4726     0.7689 H       
  60 H60           -6.8111     7.0507     0.1012 H       
  61 H61           -4.4586     6.6083     0.6388 H       
  62 H62           -5.1006     5.2402    -0.3064 H       
  63 H63           -8.2203     8.2107     0.4907 H       
  64 H64           -9.3220     8.9413     1.6827 H       
  65 H65           -7.5927     9.3630     1.6934 H       
  66 H66           -8.8785     5.6200     3.0431 H       
  67 H67          -10.0507     6.8199     2.4477 H       
  68 H68           -8.9918     5.9648     1.3005 H       
  69 H69           -6.6524    -0.4010     1.8144 H       
  70 H70           -6.2019     1.2998     2.0671 H       
  71 H71           -8.7049     0.8246     2.1531 H       
  72 H72           -8.2194     2.0752     0.9779 H       
  73 H73           -8.5857    -0.8720     0.2660 H       
  74 H74           -9.8512     0.3653     0.0467 H       
  75 H75           -8.4197    -0.0801    -2.0151 H       
  76 H76           -8.4706     1.6169    -1.4886 H       
  77 H77           -6.0422     0.6272    -1.9950 H       
@<TRIPOS>BOND
   1    1    2 ar
   2    1   17 1
   3    1    6 ar
   4    2    3 ar
   5    2   37 1
   6    3    4 ar
   7    3   38 1
   8    4    5 ar
   9    4    7 1
  10    5    6 ar
  11    5    9 1
  12    6   39 1
  13    7    8 2
  14    7   11 1
  15    8    9 1
  16    8   10 1
  17    9   19 1
  18   10   32 1
  19   10   36 2
  20   11   12 1
  21   11   16 1
  22   11   40 1
  23   12   13 1
  24   12   41 1
  25   12   42 1
  26   13   14 1
  27   13   43 1
  28   13   44 1
  29   14   15 1
  30   14   45 1
  31   14   46 1
  32   15   16 1
  33   15   47 1
  34   15   48 1
  35   16   49 1
  36   16   50 1
  37   17   18 1
  38   17   22 2
  39   18   51 1
  40   19   20 1
  41   19   52 1
  42   19   53 1
  43   20   21 am
  44   20   23 2
  45   21   24 1
  46   21   28 1
  47   24   25 1
  48   24   54 1
  49   24   55 1
  50   25   26 1
  51   25   56 1
  52   25   57 1
  53   26   27 1
  54   26   29 1
  55   26   58 1
  56   27   28 1
  57   27   59 1
  58   27   60 1
  59   28   61 1
  60   28   62 1
  61   29   30 1
  62   29   31 1
  63   30   63 1
  64   30   64 1
  65   30   65 1
  66   31   66 1
  67   31   67 1
  68   31   68 1
  69   32   33 1
  70   32   69 1
  71   32   70 1
  72   33   34 1
  73   33   71 1
  74   33   72 1
  75   34   35 1
  76   34   73 1
  77   34   74 1
  78   35   36 1
  79   35   75 1
  80   35   76 1
  81   36   77 1

#	End of record

