#	Name: ASD01914217
#	Creating user name:	WinNT
#	Creation time:	15. 06. 2019 20:03

#	Modifying user name:	WinNT
#	Modification time:	15. 06. 2019 20:03

#	Program:	/corina/corina34_cracker 3.40 0067  02.08.2006

@<TRIPOS>MOLECULE
ASD01914217
  36   38    0    0    0
SMALL
NO_CHARGES


@<TRIPOS>ATOM
   1 C1            -0.0162     1.3410     0.0094 C.2     
   2 N2             0.0021    -0.0041     0.0020 N.am    
   3 C3             1.2637    -0.4708    -0.0125 C.2     
   4 C4             2.1916     0.6799    -0.0152 C.ar    
   5 C5             3.5709     0.8108    -0.0273 C.ar    
   6 C6             4.1413     2.0742    -0.0256 C.ar    
   7 C7             3.3438     3.2031    -0.0119 C.ar    
   8 C8             1.9626     3.0875     0.0003 C.ar    
   9 C9             1.3783     1.8310    -0.0013 C.ar    
  10 O10           -1.0118     2.0364     0.0181 O.2     
  11 O11            1.5863    -1.6416    -0.0213 O.2     
  12 C12           -1.1944    -0.8494     0.0093 C.3     
  13 C13           -1.6253    -1.1359    -1.4305 C.3     
  14 C14           -2.8749    -2.0187    -1.4229 C.3     
  15 C15           -3.2894    -2.2944    -2.8081 C.1     
  16 C16           -3.6200    -2.5142    -3.9130 C.1     
  17 C17           -4.0232    -2.7824    -5.2606 C.ar    
  18 C18           -5.1470    -3.5733    -5.5026 C.ar    
  19 C19           -5.5237    -3.8232    -6.8102 C.ar    
  20 C20           -4.7651    -3.2746    -7.8351 C.ar    
  21 C21           -3.6629    -2.4999    -7.5239 C.ar    
  22 N22           -3.3279    -2.2721    -6.2704 N.ar    
  23 H23            4.1990    -0.0677    -0.0376 H       
  24 H24            5.2164     2.1772    -0.0346 H       
  25 H25            3.8001     4.1820    -0.0103 H       
  26 H26            1.3444     3.9730     0.0113 H       
  27 H27           -0.9726    -1.7886     0.5160 H       
  28 H28           -1.9995    -0.3349     0.5340 H       
  29 H29           -1.8471    -0.1966    -1.9371 H       
  30 H30           -0.8202    -1.6504    -1.9551 H       
  31 H31           -2.6531    -2.9580    -0.9162 H       
  32 H32           -3.6800    -1.5042    -0.8982 H       
  33 H33           -5.7145    -3.9848    -4.6810 H       
  34 H34           -6.3887    -4.4320    -7.0287 H       
  35 H35           -5.0331    -3.4516    -8.8662 H       
  36 H36           -3.0709    -2.0723    -8.3195 H       
@<TRIPOS>BOND
   1    1    2 am
   2    1    9 1
   3    1   10 2
   4    2    3 am
   5    2   12 1
   6    3    4 1
   7    3   11 2
   8    4    5 ar
   9    4    9 ar
  10    5    6 ar
  11    5   23 1
  12    6    7 ar
  13    6   24 1
  14    7    8 ar
  15    7   25 1
  16    8    9 ar
  17    8   26 1
  18   12   13 1
  19   12   27 1
  20   12   28 1
  21   13   14 1
  22   13   29 1
  23   13   30 1
  24   14   15 1
  25   14   31 1
  26   14   32 1
  27   15   16 3
  28   16   17 1
  29   17   18 ar
  30   17   22 ar
  31   18   19 ar
  32   18   33 1
  33   19   20 ar
  34   19   34 1
  35   20   21 ar
  36   20   35 1
  37   21   22 ar
  38   21   36 1

#	End of record

