#	Name: ASD01810951
#	Creating user name:	WinNT
#	Creation time:	15. 06. 2019 19:25

#	Modifying user name:	WinNT
#	Modification time:	15. 06. 2019 19:25

#	Program:	/corina/corina34_cracker 3.40 0067  02.08.2006

@<TRIPOS>MOLECULE
ASD01810951
  29   30    0    0    0
SMALL
NO_CHARGES


@<TRIPOS>ATOM
   1 C1            -0.0096     1.4718     0.0890 C.2     
   2 C2             0.0061    -0.0047     0.0404 C.ar    
   3 C3             1.2151    -0.6874    -0.1186 C.ar    
   4 C4             1.2317    -2.0670    -0.1644 C.ar    
   5 C5             0.0556    -2.7822    -0.0535 C.ar    
   6 C6            -1.1604    -2.1128     0.1059 C.ar    
   7 C7            -1.1838    -0.7201     0.1587 C.ar    
   8 O8             1.0357     2.0905     0.0957 O.2     
   9 O9            -1.1833     2.1322     0.1203 O.3     
  10 C10            0.0837    -4.2880    -0.1050 C.3     
  11 C11            2.5037     0.0844    -0.2410 C.3     
  12 C12            3.5190    -0.0512     0.8955 C.3     
  13 C13            3.7894    -0.7169    -0.4553 C.3     
  14 C14           -2.3791    -2.8559     0.2208 C.1     
  15 N15           -3.3459    -3.4454     0.3119 N.1     
  16 C16           -1.1228     3.5822     0.1675 C.3     
  17 H17            2.1688    -2.5894    -0.2878 H       
  18 H18           -2.1204    -0.1977     0.2862 H       
  19 H19            0.2066    -4.6838     0.9031 H       
  20 H20           -0.8517    -4.6546    -0.5278 H       
  21 H21            0.9165    -4.6148    -0.7277 H       
  22 H22            2.4263     1.0536    -0.7337 H       
  23 H23            4.1098     0.8286     1.1502 H       
  24 H24            3.2550    -0.6987     1.7317 H       
  25 H25            3.7032    -1.8022    -0.5078 H       
  26 H26            4.5581    -0.2749    -1.0893 H       
  27 H27           -2.1344     3.9876     0.1891 H       
  28 H28           -0.5870     3.8945     1.0639 H       
  29 H29           -0.6016     3.9530    -0.7151 H       
@<TRIPOS>BOND
   1    1    2 1
   2    1    8 2
   3    1    9 1
   4    2    3 ar
   5    2    7 ar
   6    3    4 ar
   7    3   11 1
   8    4    5 ar
   9    4   17 1
  10    5    6 ar
  11    5   10 1
  12    6    7 ar
  13    6   14 1
  14    7   18 1
  15    9   16 1
  16   10   19 1
  17   10   20 1
  18   10   21 1
  19   11   12 1
  20   11   13 1
  21   11   22 1
  22   12   13 1
  23   12   23 1
  24   12   24 1
  25   13   25 1
  26   13   26 1
  27   14   15 3
  28   16   27 1
  29   16   28 1
  30   16   29 1

#	End of record

