#	Name: ASD01880931
#	Creating user name:	WinNT
#	Creation time:	15. 06. 2019 19:41

#	Modifying user name:	WinNT
#	Modification time:	15. 06. 2019 19:41

#	Program:	/corina/corina34_cracker 3.40 0067  02.08.2006

@<TRIPOS>MOLECULE
ASD01880931
  46   49    0    0    0
SMALL
NO_CHARGES


@<TRIPOS>ATOM
   1 N1             0.0645     1.3750    -0.6397 N.ar    
   2 C2             0.1102     0.0791    -0.8728 C.ar    
   3 N3             1.2172    -0.6174    -0.7103 N.ar    
   4 C4             2.3355    -0.0351    -0.3031 C.ar    
   5 C5             2.3333     1.3233    -0.0471 C.ar    
   6 C6             1.1452     2.0292    -0.2289 C.ar    
   7 C7             3.5841     2.0235     0.4181 C.3     
   8 O8             4.6492     1.0765     0.5226 O.3     
   9 C9             5.8543     1.5474     0.9323 C.ar    
  10 C10            6.9346     0.6785     1.0556 C.ar    
  11 C11            8.1533     1.1550     1.4695 C.ar    
  12 C12            8.3185     2.5116     1.7692 C.ar    
  13 C13            7.2298     3.3811     1.6438 C.ar    
  14 C14            6.0094     2.8970     1.2224 C.ar    
  15 C15            9.4929     0.5017     1.7019 C.3     
  16 N16           10.3978     1.5691     2.1435 N.am    
  17 C17            9.7158     2.7266     2.1808 C.2     
  18 O18           10.1860     3.7992     2.5076 O.2     
  19 Cl19           7.4165     5.0673     2.0120 Cl      
  20 O20            1.0937     3.3624     0.0088 O.3     
  21 C21           -0.1134     3.9802    -0.0809 C.ar    
  22 C22           -1.0446     3.8374     0.9377 C.ar    
  23 C23           -2.2707     4.4669     0.8443 C.ar    
  24 C24           -2.5703     5.2388    -0.2631 C.ar    
  25 C25           -1.6441     5.3827    -1.2795 C.ar    
  26 C26           -0.4146     4.7596    -1.1886 C.ar    
  27 C27           12.6682     1.6013     1.2346 C.3     
  28 C28           11.8121     1.4008     2.4868 C.3     
  29 H29           -0.7841    -0.4265    -1.2060 H       
  30 H30            3.2375    -0.6146    -0.1726 H       
  31 H31            3.8554     2.7977    -0.2997 H       
  32 H32            3.4051     2.4780     1.3925 H       
  33 H33            6.8138    -0.3699     0.8261 H       
  34 H34            5.1689     3.5682     1.1252 H       
  35 H35            9.4084    -0.2618     2.4753 H       
  36 H36            9.8596     0.0588     0.7759 H       
  37 H37           -0.8112     3.2343     1.8027 H       
  38 H38           -2.9960     4.3558     1.6368 H       
  39 H39           -3.5296     5.7298    -0.3343 H       
  40 H40           -1.8807     5.9859    -2.1436 H       
  41 H41            0.3087     4.8726    -1.9826 H       
  42 H42           13.7204     1.4762     1.4900 H       
  43 H43           12.3872     0.8658     0.4808 H       
  44 H44           12.5067     2.6049     0.8410 H       
  45 H45           12.0930     2.1363     3.2406 H       
  46 H46           11.9735     0.3973     2.8804 H       
@<TRIPOS>BOND
   1    1    2 ar
   2    1    6 ar
   3    2    3 ar
   4    2   29 1
   5    3    4 ar
   6    4    5 ar
   7    4   30 1
   8    5    6 ar
   9    5    7 1
  10    6   20 1
  11    7    8 1
  12    7   31 1
  13    7   32 1
  14    8    9 1
  15    9   10 ar
  16    9   14 ar
  17   10   11 ar
  18   10   33 1
  19   11   12 ar
  20   11   15 1
  21   12   13 ar
  22   12   17 1
  23   13   14 ar
  24   13   19 1
  25   14   34 1
  26   15   16 1
  27   15   35 1
  28   15   36 1
  29   16   17 am
  30   16   28 1
  31   17   18 2
  32   20   21 1
  33   21   22 ar
  34   21   26 ar
  35   22   23 ar
  36   22   37 1
  37   23   24 ar
  38   23   38 1
  39   24   25 ar
  40   24   39 1
  41   25   26 ar
  42   25   40 1
  43   26   41 1
  44   27   28 1
  45   27   42 1
  46   27   43 1
  47   27   44 1
  48   28   45 1
  49   28   46 1

#	End of record

