#	Name: ASD01100005
#	Creating user name:	WinNT
#	Creation time:	15. 06. 2019 18:58

#	Modifying user name:	WinNT
#	Modification time:	15. 06. 2019 18:58

#	Program:	/corina/corina34_cracker 3.40 0067  02.08.2006

@<TRIPOS>MOLECULE
ASD01100005
  34   35    0    0    0
SMALL
NO_CHARGES


@<TRIPOS>ATOM
   1 C1             0.0229     1.2987    -0.5413 C.ar    
   2 C2             0.0118    -0.0756    -0.3820 C.ar    
   3 C3             1.1881    -0.7487    -0.1038 C.ar    
   4 C4             2.3735    -0.0480     0.0148 C.ar    
   5 C5             2.3839     1.3252    -0.1445 C.ar    
   6 C6             1.2089     1.9983    -0.4225 C.ar    
   7 C7             3.6767     2.0887    -0.0145 C.3     
   8 C8             3.5576     3.0916     1.1040 C.2     
   9 N9             3.9903     2.7762     2.3408 N.am    
  10 C10            3.9712     2.8199    -1.3259 C.3     
  11 C11            5.2964     3.5745    -1.2025 C.3     
  12 C12            4.0670     1.8039    -2.4659 C.3     
  13 Cl13          -1.4776    -0.9550    -0.5305 Cl      
  14 O14            3.0723     4.1825     0.8912 O.2     
  15 C15            3.9726     3.7335     3.3485 C.2     
  16 N16            4.3649     3.5352     4.5679 N.2     
  17 C17            4.2793     4.5586     5.3970 C.2     
  18 C18            3.7914     5.6747     4.8522 C.2     
  19 S19            3.4372     5.3459     3.1580 S.3     
  20 H20           -0.8943     1.8241    -0.7629 H       
  21 H21            1.1799    -1.8214     0.0210 H       
  22 H22            3.2917    -0.5733     0.2323 H       
  23 H23            1.2177     3.0711    -0.5468 H       
  24 H24            4.4881     1.3947     0.2046 H       
  25 H25            4.3141     1.8811     2.5277 H       
  26 H26            3.1686     3.5269    -1.5358 H       
  27 H27            5.4866     4.1275    -2.1224 H       
  28 H28            5.2419     4.2701    -0.3651 H       
  29 H29            6.1049     2.8635    -1.0322 H       
  30 H30            3.1229     1.2663    -2.5537 H       
  31 H31            4.2768     2.3248    -3.4001 H       
  32 H32            4.8696     1.0969    -2.2559 H       
  33 H33            4.5798     4.4976     6.4326 H       
  34 H34            3.6427     6.6161     5.3602 H       
@<TRIPOS>BOND
   1    1    2 ar
   2    1    6 ar
   3    1   20 1
   4    2    3 ar
   5    2   13 1
   6    3    4 ar
   7    3   21 1
   8    4    5 ar
   9    4   22 1
  10    5    6 ar
  11    5    7 1
  12    6   23 1
  13    7    8 1
  14    7   10 1
  15    7   24 1
  16    8    9 am
  17    8   14 2
  18    9   15 1
  19    9   25 1
  20   10   11 1
  21   10   12 1
  22   10   26 1
  23   11   27 1
  24   11   28 1
  25   11   29 1
  26   12   30 1
  27   12   31 1
  28   12   32 1
  29   15   16 2
  30   15   19 1
  31   16   17 1
  32   17   18 2
  33   17   33 1
  34   18   19 1
  35   18   34 1

#	End of record

