#	Name: ASD08270001
#	Creating user name:	WinNT
#	Creation time:	15. 06. 2019 21:19

#	Modifying user name:	WinNT
#	Modification time:	15. 06. 2019 21:19

#	Program:	/corina/corina34_cracker 3.40 0067  02.08.2006

@<TRIPOS>MOLECULE
ASD08270001
  39   40    0    0    0
SMALL
NO_CHARGES


@<TRIPOS>ATOM
   1 O1            -0.1043     1.4706    -0.1837 O.3     
   2 O2             2.0471     4.0517    -1.1303 O.3     
   3 O3            -1.3517     3.3579     0.0479 O.3     
   4 O4             4.2838    -0.7958     0.0509 O.3     
   5 O5             1.7603     2.4786     2.0696 O.2     
   6 O6             3.3803     0.1671    -2.2398 O.2     
   7 O7            -1.7836     5.6389    -1.5612 O.3     
   8 N8             1.9390     1.6033    -1.3610 N.am    
   9 N9             3.0017     0.8976     1.1324 N.am    
  10 C10            1.2116     2.0092    -0.1450 C.3     
  11 C11            1.0388     3.5246    -0.2657 C.3     
  12 C12           -0.3429     3.8359    -0.8443 C.3     
  13 C13            3.0244    -0.1206     0.0568 C.3     
  14 C14            2.0055     1.8116     1.0867 C.2     
  15 C15            2.7925     0.5589    -1.2540 C.2     
  16 C16            1.9338    -1.0792     0.4050 C.2     
  17 C17           -0.1459     0.0319    -0.3313 C.3     
  18 C18            0.5635    -0.6541     0.8347 C.3     
  19 C19           -0.4931     5.3482    -1.0208 C.3     
  20 C20           -0.4944     3.1465    -2.2018 C.3     
  21 C21            2.1893    -2.3619     0.3302 C.2     
  22 H22            1.1310     3.9805     0.7201 H       
  23 H23            1.8108     2.0660    -2.2038 H       
  24 H24            3.6737     0.9129     1.8318 H       
  25 H25           -1.1851    -0.2956    -0.3615 H       
  26 H26            0.3445    -0.2473    -1.2638 H       
  27 H27           -0.0082    -1.5292     1.1437 H       
  28 H28            0.6441     0.0409     1.6705 H       
  29 H29            0.2764     5.7128    -1.7013 H       
  30 H30           -0.3851     5.8393    -0.0537 H       
  31 H31           -0.4753     2.0654    -2.0644 H       
  32 H32           -1.4423     3.4386    -2.6538 H       
  33 H33            0.3263     3.4444    -2.8542 H       
  34 H34            2.0636     3.6463    -2.0081 H       
  35 H35           -1.3160     3.7530     0.9298 H       
  36 H36            5.0415    -0.2136    -0.0974 H       
  37 H37            3.1678    -2.7005     0.0232 H       
  38 H38            1.4215    -3.0806     0.5755 H       
  39 H39           -1.9487     6.5816    -1.6999 H       
@<TRIPOS>BOND
   1    1   17 1
   2    1   10 1
   3    2   34 1
   4    2   11 1
   5    3   35 1
   6    3   12 1
   7    4   36 1
   8    4   13 1
   9    5   14 2
  10    6   15 2
  11    7   19 1
  12    7   39 1
  13    8   10 1
  14    8   15 am
  15    8   23 1
  16    9   13 1
  17    9   14 am
  18    9   24 1
  19   10   11 1
  20   10   14 1
  21   11   12 1
  22   11   22 1
  23   12   19 1
  24   12   20 1
  25   13   15 1
  26   13   16 1
  27   16   18 1
  28   16   21 2
  29   17   18 1
  30   17   25 1
  31   17   26 1
  32   18   27 1
  33   18   28 1
  34   19   29 1
  35   19   30 1
  36   20   31 1
  37   20   32 1
  38   20   33 1
  39   21   37 1
  40   21   38 1

#	End of record

