#	Name: ASD03091305
#	Creating user name:	WinNT
#	Creation time:	15. 06. 2019 20:30

#	Modifying user name:	WinNT
#	Modification time:	15. 06. 2019 20:30

#	Program:	/corina/corina34_cracker 3.40 0067  02.08.2006

@<TRIPOS>MOLECULE
ASD03091305
  65   69    0    0    0
SMALL
NO_CHARGES


@<TRIPOS>ATOM
   1 C1            -0.4554     0.7684     1.2822 C.1     
   2 C2            -0.1199     1.8172     0.3667 C.ar    
   3 C3             1.0266     2.5832     0.5716 C.ar    
   4 C4             1.3457     3.6012    -0.3243 C.ar    
   5 C5             0.5159     3.8479    -1.4209 C.ar    
   6 C6            -0.6181     3.0857    -1.6180 C.ar    
   7 C7            -0.9378     2.0715    -0.7370 C.ar    
   8 N8            -0.7216    -0.0636     2.0084 N.1     
   9 N9             3.7091     3.8080     0.0050 N.2     
  10 C10            2.5593     4.4189    -0.1148 C.2     
  11 N11            2.4266     5.7799    -0.0558 N.am    
  12 C12            3.5118     6.5660     0.1342 C.2     
  13 C13            4.8160     5.9005     0.2716 C.ar    
  14 C14            5.9907     6.6221     0.4705 C.ar    
  15 C15            7.1916     5.9437     0.5938 C.ar    
  16 C16            7.2266     4.5510     0.5199 C.ar    
  17 C17            6.0836     3.8304     0.3254 C.ar    
  18 C18            4.8569     4.4894     0.1975 C.ar    
  19 O19            3.4122     7.7780     0.1888 O.2     
  20 C20            1.1022     6.3894    -0.1996 C.3     
  21 C21            0.4937     6.6197     1.1852 C.3     
  22 C22           -0.9203     7.1841     1.0335 C.3     
  23 C23            0.4343     5.2922     1.9434 C.3     
  24 C24            1.3586     7.6133     1.9634 C.3     
  25 O25           -1.4886     7.3993     2.3268 O.3     
  26 N26           10.1586     8.6892     2.0045 N.3     
  27 C27            9.4234     8.9099     0.7498 C.3     
  28 C28            8.1332     8.1049     0.7345 C.3     
  29 N29            8.3758     6.6585     0.7930 N.3     
  30 C30            9.0051     6.2900     2.0689 C.3     
  31 C31           10.5187     6.2479     1.9216 C.3     
  32 C32           11.1521     7.6210     1.8237 C.3     
  33 C33            9.3551     8.5156     3.1955 C.3     
  34 C34            8.5287     7.2408     3.1518 C.3     
  35 H35            1.6644     2.3885     1.4211 H       
  36 H36            0.7621     4.6371    -2.1159 H       
  37 H37           -1.2561     3.2810    -2.4672 H       
  38 H38           -1.8242     1.4763    -0.8994 H       
  39 H39            5.9653     7.7003     0.5275 H       
  40 H40            8.1709     4.0360     0.6175 H       
  41 H41            6.1267     2.7527     0.2700 H       
  42 H42            1.1956     7.3433    -0.7187 H       
  43 H43            0.4568     5.7248    -0.7740 H       
  44 H44           -0.8780     8.1299     0.4933 H       
  45 H45           -1.5365     6.4763     0.4790 H       
  46 H46            1.4457     4.9159     2.0971 H       
  47 H47           -0.0466     5.4466     2.9093 H       
  48 H48           -0.1386     4.5681     1.3640 H       
  49 H49            1.4009     8.5591     1.4233 H       
  50 H50            0.9251     7.7774     2.9500 H       
  51 H51            2.3659     7.2112     2.0715 H       
  52 H52           -2.3868     7.7571     2.3072 H       
  53 H53            9.1867     9.9695     0.6539 H       
  54 H54           10.0471     8.6045    -0.0903 H       
  55 H55            7.5254     8.3959     1.5912 H       
  56 H56            7.5849     8.3343    -0.1792 H       
  57 H57            8.6631     5.2904     2.3372 H       
  58 H58           10.9394     5.7297     2.7834 H       
  59 H59           10.7668     5.6837     1.0226 H       
  60 H60           11.6168     7.7295     0.8437 H       
  61 H61           11.9192     7.7147     2.5923 H       
  62 H62           10.0131     8.4807     4.0639 H       
  63 H63            8.6841     9.3686     3.2967 H       
  64 H64            7.4871     7.5002     2.9624 H       
  65 H65            8.5976     6.7406     4.1178 H       
@<TRIPOS>BOND
   1    1    2 1
   2    1    8 3
   3    2    3 ar
   4    2    7 ar
   5    3    4 ar
   6    3   35 1
   7    4    5 ar
   8    4   10 1
   9    5    6 ar
  10    5   36 1
  11    6    7 ar
  12    6   37 1
  13    7   38 1
  14    9   10 2
  15    9   18 1
  16   10   11 1
  17   11   12 am
  18   11   20 1
  19   12   13 1
  20   12   19 2
  21   13   14 ar
  22   13   18 ar
  23   14   15 ar
  24   14   39 1
  25   15   16 ar
  26   15   29 1
  27   16   17 ar
  28   16   40 1
  29   17   18 ar
  30   17   41 1
  31   20   21 1
  32   20   42 1
  33   20   43 1
  34   21   22 1
  35   21   23 1
  36   21   24 1
  37   22   25 1
  38   22   44 1
  39   22   45 1
  40   23   46 1
  41   23   47 1
  42   23   48 1
  43   24   49 1
  44   24   50 1
  45   24   51 1
  46   25   52 1
  47   26   27 1
  48   26   32 1
  49   26   33 1
  50   27   28 1
  51   27   53 1
  52   27   54 1
  53   28   29 1
  54   28   55 1
  55   28   56 1
  56   29   30 1
  57   30   31 1
  58   30   34 1
  59   30   57 1
  60   31   32 1
  61   31   58 1
  62   31   59 1
  63   32   60 1
  64   32   61 1
  65   33   34 1
  66   33   62 1
  67   33   63 1
  68   34   64 1
  69   34   65 1

#	End of record

