#	Name: ASD01810439
#	Creating user name:	WinNT
#	Creation time:	15. 06. 2019 19:24

#	Modifying user name:	WinNT
#	Modification time:	15. 06. 2019 19:24

#	Program:	/corina/corina34_cracker 3.40 0067  02.08.2006

@<TRIPOS>MOLECULE
ASD01810439
  49   51    0    0    0
SMALL
NO_CHARGES


@<TRIPOS>ATOM
   1 C1             0.3121     0.9928     1.5684 C.2     
   2 C2             0.1543    -0.2269     0.7476 C.ar    
   3 C3             1.1630    -0.6084    -0.1405 C.ar    
   4 C4             1.0170    -1.7468    -0.9079 C.ar    
   5 C5            -0.1253    -2.5158    -0.8031 C.ar    
   6 C6            -1.1414    -2.1458     0.0808 C.ar    
   7 C7            -0.9979    -1.0012     0.8624 C.ar    
   8 O8             1.3617     1.6056     1.5508 O.2     
   9 N9            -0.7098     1.4283     2.3317 N.am    
  10 N10           -0.5640     2.5551     3.0899 N.3     
  11 C11            2.4129     0.2246    -0.2615 C.3     
  12 C12           -2.3639    -2.9700     0.1913 C.2     
  13 O13           -3.4337    -2.4422     0.4247 O.2     
  14 N14           -2.2921    -4.3065     0.0332 N.am    
  15 C15           -3.5118    -5.1257     0.0227 C.3     
  16 C16           -3.3655    -6.2412     1.0623 C.3     
  17 C17           -2.0799    -7.0245     0.7868 C.3     
  18 C18           -0.8747    -6.0893     0.9090 C.3     
  19 C19           -0.9931    -4.9714    -0.1380 C.3     
  20 C20           -1.9500    -8.1441     1.7871 C.ar    
  21 C21           -1.8962    -9.4556     1.3496 C.ar    
  22 C22           -1.7774   -10.4854     2.2598 C.ar    
  23 C23           -1.7108   -10.2016     3.6254 C.ar    
  24 C24           -1.7652    -8.8758     4.0599 C.ar    
  25 C25           -1.8793    -7.8555     3.1385 C.ar    
  26 C26           -1.5879   -11.2656     4.5759 C.1     
  27 N27           -1.4903   -12.1096     5.3300 N.1     
  28 H28            1.7994    -2.0369    -1.5934 H       
  29 H29           -0.2333    -3.4051    -1.4063 H       
  30 H30           -1.7787    -0.7131     1.5507 H       
  31 H31           -1.5487     0.9415     2.3427 H       
  32 H32           -0.2921     3.3420     2.5198 H       
  33 H33           -1.4081     2.7562     3.6048 H       
  34 H34            3.1104    -0.0496     0.5300 H       
  35 H35            2.8761     0.0460    -1.2319 H       
  36 H36            2.1564     1.2801    -0.1700 H       
  37 H37           -4.3716    -4.5041     0.2722 H       
  38 H38           -3.6494    -5.5635    -0.9661 H       
  39 H39           -3.3189    -5.8048     2.0601 H       
  40 H40           -4.2215    -6.9129     0.9982 H       
  41 H41           -2.1165    -7.4400    -0.2202 H       
  42 H42           -0.8515    -5.6543     1.9082 H       
  43 H43            0.0421    -6.6528     0.7357 H       
  44 H44           -0.9296    -5.3968    -1.1396 H       
  45 H45           -0.1906    -4.2479     0.0055 H       
  46 H46           -1.9478    -9.6737     0.2931 H       
  47 H47           -1.7362   -11.5087     1.9170 H       
  48 H48           -1.7143    -8.6493     5.1146 H       
  49 H49           -1.9174    -6.8293     3.4729 H       
@<TRIPOS>BOND
   1    1    2 1
   2    1    8 2
   3    1    9 am
   4    2    3 ar
   5    2    7 ar
   6    3    4 ar
   7    3   11 1
   8    4    5 ar
   9    4   28 1
  10    5    6 ar
  11    5   29 1
  12    6    7 ar
  13    6   12 1
  14    7   30 1
  15    9   10 1
  16    9   31 1
  17   10   32 1
  18   10   33 1
  19   11   34 1
  20   11   35 1
  21   11   36 1
  22   12   13 2
  23   12   14 am
  24   14   15 1
  25   14   19 1
  26   15   16 1
  27   15   37 1
  28   15   38 1
  29   16   17 1
  30   16   39 1
  31   16   40 1
  32   17   18 1
  33   17   20 1
  34   17   41 1
  35   18   19 1
  36   18   42 1
  37   18   43 1
  38   19   44 1
  39   19   45 1
  40   20   21 ar
  41   20   25 ar
  42   21   22 ar
  43   21   46 1
  44   22   23 ar
  45   22   47 1
  46   23   24 ar
  47   23   26 1
  48   24   25 ar
  49   24   48 1
  50   25   49 1
  51   26   27 3

#	End of record

