#	Name: ASD01410378
#	Creating user name:	WinNT
#	Creation time:	15. 06. 2019 19:17

#	Modifying user name:	WinNT
#	Modification time:	15. 06. 2019 19:17

#	Program:	/corina/corina34_cracker 3.40 0067  02.08.2006

@<TRIPOS>MOLECULE
ASD01410378
  27   28    0    0    0
SMALL
NO_CHARGES


@<TRIPOS>ATOM
   1 S1             0.1279     1.7778     0.8616 S.3     
   2 C2             0.1995     0.0140     1.0186 C.2     
   3 N3             1.4366    -0.3575     0.6695 N.am    
   4 C4             2.3136     0.5617     0.3018 C.2     
   5 C5             1.8100     1.9400     0.3191 C.2     
   6 N6             1.7913    -1.6764     0.6932 N.3     
   7 O7             3.4527     0.2853    -0.0259 O.2     
   8 S8            -1.0710    -1.0174     1.5217 S.2     
   9 C9             2.4768     3.0768    -0.0057 C.2     
  10 C10            1.7551     4.3530    -0.0890 C.ar    
  11 C11            2.4519     5.5628     0.0200 C.ar    
  12 C12            1.7701     6.7562    -0.0588 C.ar    
  13 C13            0.3927     6.7618    -0.2457 C.ar    
  14 C14           -0.3041     5.5639    -0.3546 C.ar    
  15 C15            0.3683     4.3646    -0.2835 C.ar    
  16 O16           -0.2747     7.9417    -0.3218 O.3     
  17 C17           -1.6891     7.8757    -0.5146 C.3     
  18 H18            1.0196    -2.2531     0.9931 H       
  19 H19            2.1369    -1.9741    -0.2068 H       
  20 H20            3.5381     3.0428    -0.2029 H       
  21 H21            3.5219     5.5596     0.1660 H       
  22 H22            2.3065     7.6899     0.0252 H       
  23 H23           -1.3742     5.5740    -0.4998 H       
  24 H24           -0.1740     3.4345    -0.3682 H       
  25 H25           -1.9047     7.3566    -1.4485 H       
  26 H26           -2.1441     7.3349     0.3152 H       
  27 H27           -2.0975     8.8854    -0.5576 H       
@<TRIPOS>BOND
   1    1    2 1
   2    1    5 1
   3    2    3 am
   4    2    8 2
   5    3    4 am
   6    3    6 1
   7    4    5 1
   8    4    7 2
   9    5    9 2
  10    6   18 1
  11    6   19 1
  12    9   10 1
  13    9   20 1
  14   10   11 ar
  15   10   15 ar
  16   11   12 ar
  17   11   21 1
  18   12   13 ar
  19   12   22 1
  20   13   14 ar
  21   13   16 1
  22   14   15 ar
  23   14   23 1
  24   15   24 1
  25   16   17 1
  26   17   25 1
  27   17   26 1
  28   17   27 1

#	End of record

