#	Name: ASD01911310
#	Creating user name:	WinNT
#	Creation time:	15. 06. 2019 19:57

#	Modifying user name:	WinNT
#	Modification time:	15. 06. 2019 19:57

#	Program:	/corina/corina34_cracker 3.40 0067  02.08.2006

@<TRIPOS>MOLECULE
ASD01911310
  32   33    0    0    0
SMALL
NO_CHARGES


@<TRIPOS>ATOM
   1 C1            -0.0167     1.3796     0.0096 C.ar    
   2 C2             0.0021    -0.0041     0.0020 C.ar    
   3 C3             1.2058    -0.6865    -0.0127 C.ar    
   4 C4             2.3967     0.0092    -0.0198 C.ar    
   5 C5             2.3857     1.4065    -0.0127 C.ar    
   6 C6             1.1662     2.0887     0.0021 C.ar    
   7 C7             3.6396     3.4997    -0.0133 C.2     
   8 C8             4.9078     4.2501    -0.0209 C.ar    
   9 C9             4.9143     5.6514    -0.0139 C.ar    
  10 N10            6.0722     6.2861    -0.0206 N.ar    
  11 C11            7.2161     5.6161    -0.0338 C.ar    
  12 N12            7.2528     4.2910    -0.0408 N.ar    
  13 C13            6.1391     3.5814    -0.0294 C.ar    
  14 N14            8.4063     6.3205    -0.0409 N.pl3   
  15 C15            8.3906     7.7854    -0.0338 C.3     
  16 C16            9.6828     5.6017    -0.0554 C.3     
  17 C17            3.6540     2.1571    -0.0202 C.2     
  18 H18           -0.9600     1.9055     0.0169 H       
  19 H19           -0.9274    -0.5541     0.0079 H       
  20 H20            1.2128    -1.7664    -0.0182 H       
  21 H21            3.3355    -0.5247    -0.0306 H       
  22 H22            1.1500     3.1686     0.0074 H       
  23 H23            2.6986     4.0296    -0.0022 H       
  24 H24            3.9863     6.2038    -0.0035 H       
  25 H25            6.1768     2.5021    -0.0348 H       
  26 H26            8.3957     8.1439     0.9955 H       
  27 H27            9.2722     8.1607    -0.5536 H       
  28 H28            7.4924     8.1416    -0.5381 H       
  29 H29            9.4951     4.5280    -0.0588 H       
  30 H30           10.2437     5.8754    -0.9491 H       
  31 H31           10.2593     5.8670     0.8308 H       
  32 H32            4.5950     1.6272    -0.0313 H       
@<TRIPOS>BOND
   1    1    2 ar
   2    1    6 ar
   3    1   18 1
   4    2    3 ar
   5    2   19 1
   6    3    4 ar
   7    3   20 1
   8    4    5 ar
   9    4   21 1
  10    5    6 ar
  11    5   17 1
  12    6   22 1
  13    7    8 1
  14    7   17 2
  15    7   23 1
  16    8    9 ar
  17    8   13 ar
  18    9   10 ar
  19    9   24 1
  20   10   11 ar
  21   11   12 ar
  22   11   14 1
  23   12   13 ar
  24   13   25 1
  25   14   15 1
  26   14   16 1
  27   15   26 1
  28   15   27 1
  29   15   28 1
  30   16   29 1
  31   16   30 1
  32   16   31 1
  33   17   32 1

#	End of record

