#	Name: ASD09740647
#	Creating user name:	WinNT
#	Creation time:	15. 06. 2019 21:23

#	Modifying user name:	WinNT
#	Modification time:	15. 06. 2019 21:23

#	Program:	/corina/corina34_cracker 3.40 0067  02.08.2006

@<TRIPOS>MOLECULE
ASD09740647
  16   16    0    0    0
SMALL
NO_CHARGES


@<TRIPOS>ATOM
   1 C1            -0.0179     1.4720     0.0101 C.2     
   2 C2             0.0021    -0.0041     0.0020 C.ar    
   3 C3             1.2181    -0.6855    -0.0133 C.ar    
   4 C4             1.2291    -2.0784    -0.0209 C.ar    
   5 C5             0.0193    -2.7843    -0.0132 C.ar    
   6 C6            -1.1836    -2.0994     0.0015 C.ar    
   7 C7            -1.1986    -0.7205     0.0154 C.ar    
   8 O8             1.0258     2.0937     0.0035 O.2     
   9 O9            -1.1937     2.1297     0.0193 O.3     
  10 F10            0.0264    -4.1353    -0.0205 F       
  11 C11            2.4737    -2.7866    -0.0370 C.1     
  12 N12            3.4609    -3.3484    -0.0499 N.1     
  13 H13            2.1477    -0.1358    -0.0195 H       
  14 H14           -2.1143    -2.6473     0.0071 H       
  15 H15           -2.1405    -0.1924     0.0321 H       
  16 H16           -1.1562     3.0960     0.0244 H       
@<TRIPOS>BOND
   1    1    2 1
   2    1    8 2
   3    1    9 1
   4    2    3 ar
   5    2    7 ar
   6    3    4 ar
   7    3   13 1
   8    4    5 ar
   9    4   11 1
  10    5    6 ar
  11    5   10 1
  12    6    7 ar
  13    6   14 1
  14    7   15 1
  15    9   16 1
  16   11   12 3

#	End of record

