#	Name: ASD01903274
#	Creating user name:	WinNT
#	Creation time:	15. 06. 2019 19:54

#	Modifying user name:	WinNT
#	Modification time:	15. 06. 2019 19:54

#	Program:	/corina/corina34_cracker 3.40 0067  02.08.2006

@<TRIPOS>MOLECULE
ASD01903274
  45   48    0    0    0
SMALL
NO_CHARGES


@<TRIPOS>ATOM
   1 C1            -0.0308     1.4034    -0.0599 C.ar    
   2 C2            -0.1781     0.2456     0.6868 C.ar    
   3 C3             0.8706    -0.1875     1.4834 C.ar    
   4 C4             2.0376     0.5597     1.5037 C.ar    
   5 C5             2.1157     1.7139     0.7271 C.ar    
   6 N6             1.0881     2.0938    -0.0220 N.ar    
   7 C7             3.3560     2.5237     0.7377 C.2     
   8 O8             4.3000     2.1804     1.4219 O.2     
   9 N9             3.4376     3.6411    -0.0113 N.am    
  10 C10            4.5706     4.4586     0.0725 C.ar    
  11 C11            5.8241     3.8911     0.2605 C.ar    
  12 C12            6.9415     4.6977     0.3427 C.ar    
  13 C13            6.8122     6.0759     0.2375 C.ar    
  14 C14            5.5589     6.6436     0.0495 C.ar    
  15 C15            4.4421     5.8374    -0.0380 C.ar    
  16 N16            7.9471     6.8956     0.3269 N.am    
  17 C17            8.6975     7.2738    -0.7236 C.2     
  18 C18            9.7987     8.1288    -0.2325 C.ar    
  19 C19            9.6275     8.2135     1.1643 C.ar    
  20 C20            8.4249     7.4117     1.4736 C.2     
  21 O21            8.5031     6.9641    -1.8818 O.2     
  22 O22            7.9515     7.2414     2.5790 O.2     
  23 C23           11.7362     9.5302    -0.0662 C.ar    
  24 C24           11.5680     9.6138     1.3033 C.ar    
  25 C25           10.5162     8.9576     1.9235 C.ar    
  26 C26           10.8548     8.7899    -0.8385 C.ar    
  27 C27           11.0449     8.7039    -2.3310 C.3     
  28 C28            5.4189     8.1397    -0.0646 C.3     
  29 H29           -0.8442     1.7412    -0.6849 H       
  30 H30           -1.1012    -0.3138     0.6490 H       
  31 H31            0.7801    -1.0865     2.0749 H       
  32 H32            2.8744     0.2519     2.1131 H       
  33 H33            2.7112     3.8788    -0.6086 H       
  34 H34            5.9247     2.8190     0.3427 H       
  35 H35            7.9163     4.2565     0.4892 H       
  36 H36            3.4674     6.2790    -0.1842 H       
  37 H37           12.5593    10.0464    -0.5378 H       
  38 H38           12.2616    10.1935     1.8943 H       
  39 H39           10.3898     9.0262     2.9939 H       
  40 H40           10.4995     9.5147    -2.8140 H       
  41 H41           12.1055     8.7879    -2.5677 H       
  42 H42           10.6670     7.7469    -2.6909 H       
  43 H43            5.5079     8.4343    -1.1103 H       
  44 H44            4.4441     8.4436     0.3168 H       
  45 H45            6.2035     8.6235     0.5171 H       
@<TRIPOS>BOND
   1    1    2 ar
   2    1    6 ar
   3    1   29 1
   4    2    3 ar
   5    2   30 1
   6    3    4 ar
   7    3   31 1
   8    4    5 ar
   9    4   32 1
  10    5    6 ar
  11    5    7 1
  12    7    8 2
  13    7    9 am
  14    9   10 1
  15    9   33 1
  16   10   11 ar
  17   10   15 ar
  18   11   12 ar
  19   11   34 1
  20   12   13 ar
  21   12   35 1
  22   13   14 ar
  23   13   16 1
  24   14   15 ar
  25   14   28 1
  26   15   36 1
  27   16   17 am
  28   16   20 am
  29   17   18 1
  30   17   21 2
  31   18   19 ar
  32   18   26 ar
  33   19   20 1
  34   19   25 ar
  35   20   22 2
  36   23   24 ar
  37   23   26 ar
  38   23   37 1
  39   24   25 ar
  40   24   38 1
  41   25   39 1
  42   26   27 1
  43   27   40 1
  44   27   41 1
  45   27   42 1
  46   28   43 1
  47   28   44 1
  48   28   45 1

#	End of record

