#	Name: ASD07480006
#	Creating user name:	WinNT
#	Creation time:	15. 06. 2019 21:11

#	Modifying user name:	WinNT
#	Modification time:	15. 06. 2019 21:11

#	Program:	/corina/corina34_cracker 3.40 0067  02.08.2006

@<TRIPOS>MOLECULE
ASD07480006
  44   47    0    0    0
SMALL
NO_CHARGES


@<TRIPOS>ATOM
   1 C1            -0.0170     1.4039     0.0098 C.2     
   2 C2             0.0021    -0.0041     0.0020 C.2     
   3 N3             1.1382    -0.6598    -0.0120 N.2     
   4 N4             2.3559     0.0273    -0.0199 N.pl3   
   5 C5             2.3711     1.4005    -0.0132 C.2     
   6 C6             1.1499     2.1019     0.0024 C.2     
   7 C7             3.6558    -0.3874    -0.0347 C.2     
   8 C8             4.4328     0.7322    -0.0366 C.2     
   9 N9             3.6356     1.8001    -0.0235 N.2     
  10 N10           -1.1984    -0.7082     0.0097 N.pl3   
  11 C11           -1.3331    -2.1722     0.0032 C.3     
  12 C12           -2.5455    -0.1096     0.0323 C.3     
  13 C13           -3.4705    -1.1917    -0.5785 C.3     
  14 C14           -2.8425    -2.4934    -0.0104 C.3     
  15 C15           -0.6971    -2.7510     1.2407 C.ar    
  16 C16           -0.2352    -4.0559     1.2359 C.ar    
  17 C17            0.3497    -4.5876     2.3729 C.ar    
  18 C18            0.4726    -3.8155     3.5120 C.ar    
  19 C19            0.0106    -2.5101     3.5168 C.ar    
  20 C20           -0.5698    -1.9771     2.3787 C.ar    
  21 F21           -0.3554    -4.8109     0.1220 F       
  22 F22            0.1304    -1.7553     4.6309 F       
  23 N23            4.1047    -1.7082    -0.0457 N.am    
  24 C24            5.4266    -1.9706    -0.0598 C.2     
  25 O25            6.2270    -1.0572    -0.0630 O.2     
  26 C26            5.9065    -3.3830    -0.0716 C.2     
  27 N27            7.2284    -3.6454    -0.0858 N.am    
  28 O28            5.1066    -4.2959    -0.0684 O.2     
  29 H29           -0.9600     1.9302     0.0171 H       
  30 H30            1.1403     3.1818     0.0076 H       
  31 H31            5.5126     0.7509    -0.0463 H       
  32 H32           -0.8561    -2.5844    -0.8860 H       
  33 H33           -2.8453     0.1115     1.0567 H       
  34 H34           -2.5686     0.7956    -0.5744 H       
  35 H35           -4.4965    -1.0701    -0.2310 H       
  36 H36           -3.4241    -1.1761    -1.6674 H       
  37 H37           -3.0512    -3.3398    -0.6648 H       
  38 H38           -3.2039    -2.6871     0.9995 H       
  39 H39            0.7094    -5.6059     2.3693 H       
  40 H40            0.9288    -4.2302     4.3988 H       
  41 H41           -0.9299    -0.9589     2.3824 H       
  42 H42            3.4654    -2.4377    -0.0431 H       
  43 H43            7.8677    -2.9159    -0.0884 H       
  44 H44            7.5406    -4.5638    -0.0935 H       
@<TRIPOS>BOND
   1    1    2 1
   2    1    6 2
   3    1   29 1
   4    2    3 2
   5    2   10 1
   6    3    4 1
   7    4    5 1
   8    4    7 1
   9    5    6 1
  10    5    9 2
  11    6   30 1
  12    7    8 2
  13    7   23 1
  14    8    9 1
  15    8   31 1
  16   10   11 1
  17   10   12 1
  18   11   15 1
  19   11   14 1
  20   11   32 1
  21   12   13 1
  22   12   33 1
  23   12   34 1
  24   13   14 1
  25   13   35 1
  26   13   36 1
  27   14   37 1
  28   14   38 1
  29   15   16 ar
  30   15   20 ar
  31   16   17 ar
  32   16   21 1
  33   17   18 ar
  34   17   39 1
  35   18   19 ar
  36   18   40 1
  37   19   20 ar
  38   19   22 1
  39   20   41 1
  40   23   24 am
  41   23   42 1
  42   24   25 2
  43   24   26 1
  44   26   27 am
  45   26   28 2
  46   27   43 1
  47   27   44 1

#	End of record

