#	Name: ASD04570037
#	Creating user name:	WinNT
#	Creation time:	15. 06. 2019 20:49

#	Modifying user name:	WinNT
#	Modification time:	15. 06. 2019 20:49

#	Program:	/corina/corina34_cracker 3.40 0067  02.08.2006

@<TRIPOS>MOLECULE
ASD04570037
 330  331    0    0    0
SMALL
NO_CHARGES


@<TRIPOS>ATOM
   1 C1            -0.0187     1.5258     0.0104 C.3     
   2 C2             0.0021    -0.0041     0.0020 C.3     
   3 C3            -1.4333    -0.5336     0.0129 C.3     
   4 C4            -1.4126    -2.0635     0.0045 C.3     
   5 C5            -2.8479    -2.5931     0.0153 C.3     
   6 C6            -2.8272    -4.1229     0.0069 C.3     
   7 C7            -4.2626    -4.6525     0.0178 C.3     
   8 C8            -4.2418    -6.1823     0.0094 C.3     
   9 C9            -5.6772    -6.7119     0.0202 C.3     
  10 C10           -5.6565    -8.2417     0.0118 C.3     
  11 C11           -7.0918    -8.7713     0.0227 C.3     
  12 C12           -7.0711   -10.3012     0.0143 C.3     
  13 C13           -8.5065   -10.8307     0.0251 C.3     
  14 C14           -8.4857   -12.3606     0.0167 C.3     
  15 C15           -9.8995   -12.8822     0.0274 C.2     
  16 N16          -10.1278   -14.2105     0.0224 N.am    
  17 O17          -10.8319   -12.1067     0.0405 O.2     
  18 C18          -11.5022   -14.7176     0.0328 C.3     
  19 C19          -11.4818   -16.2244     0.0246 C.2     
  20 N20          -12.6397   -16.9141     0.0319 N.am    
  21 O21          -10.4234   -16.8164     0.0113 O.2     
  22 C22          -12.6198   -18.3789     0.0239 C.3     
  23 C23          -14.0336   -18.9006     0.0345 C.2     
  24 N24          -14.2619   -20.2288     0.0296 N.am    
  25 O25          -14.9660   -18.1251     0.0476 O.2     
  26 C26          -15.6363   -20.7359     0.0400 C.3     
  27 C27          -15.6677   -22.1146    -0.5676 C.2     
  28 O28          -14.6429   -22.6236    -0.9697 O.2     
  29 N29          -16.8345   -22.7821    -0.6641 N.am    
  30 C30          -16.1445   -20.8022     1.4816 C.3     
  31 C31          -16.2295   -19.4087     2.0489 C.ar    
  32 C32          -17.3963   -18.6790     1.9152 C.ar    
  33 C33          -16.8650   -24.1224    -1.2548 C.3     
  34 C34          -16.9741   -24.0068    -2.7765 C.3     
  35 C35          -18.0543   -24.8792    -0.7220 C.2     
  36 O36          -18.8028   -24.3511     0.0728 O.2     
  37 N37          -18.2862   -26.1430    -1.1288 N.am    
  38 C38          -15.7083   -23.3492    -3.3300 C.3     
  39 C39          -15.8157   -23.2353    -4.8289 C.2     
  40 N40          -14.8101   -22.6835    -5.5365 N.am    
  41 C41          -19.4424   -26.8788    -0.6109 C.3     
  42 C42          -20.6788   -26.5390    -1.4457 C.3     
  43 C43          -19.1730   -28.3593    -0.6918 C.2     
  44 O44          -18.1191   -28.7604    -1.1381 O.2     
  45 N45          -20.1034   -29.2376    -0.2681 N.am    
  46 C46          -19.8415   -30.6769    -0.3467 C.3     
  47 C47          -21.1693   -31.4337    -0.4184 C.3     
  48 C48          -19.0667   -31.1228     0.8950 C.3     
  49 C49          -21.8874   -31.0811    -1.7226 C.3     
  50 C50          -23.2152   -31.8379    -1.7943 C.3     
  51 C51          -17.4766   -17.4013     2.4344 C.ar    
  52 C52          -16.3853   -16.8505     3.0903 C.ar    
  53 C53          -15.2157   -17.5846     3.2231 C.ar    
  54 C54          -15.1423   -18.8640     2.7071 C.ar    
  55 O55          -16.4617   -15.5936     3.6015 O.3     
  56 O56          -16.8070   -23.6402    -5.3983 O.2     
  57 C57          -23.9334   -31.4854    -3.0984 C.3     
  58 N58          -25.2083   -32.2120    -3.1673 N.3     
  59 C59            1.4167     2.0553    -0.0004 C.3     
  60 H60           -9.3821   -14.8307     0.0120 H       
  61 C61          -21.0259   -25.0600    -1.2644 C.3     
  62 C62          -22.2623   -24.7202    -2.0992 C.3     
  63 C63          -22.6093   -23.2412    -1.9179 C.3     
  64 N64          -23.7964   -22.9150    -2.7194 N.3     
  65 H65           -0.5459     1.8868    -0.8726 H       
  66 H66           -0.5289     1.8773     0.9072 H       
  67 H67            0.5123    -0.3556    -0.8948 H       
  68 H68            0.5293    -0.3651     0.8851 H       
  69 H69           -1.9435    -0.1821     0.9097 H       
  70 H70           -1.9605    -0.1726    -0.8702 H       
  71 H71           -0.9024    -2.4150    -0.8923 H       
  72 H72           -0.8854    -2.4246     0.8875 H       
  73 H73           -3.3581    -2.2415     0.9121 H       
  74 H74           -3.3751    -2.2320    -0.8677 H       
  75 H75           -2.3170    -4.4744    -0.8899 H       
  76 H76           -2.3000    -4.4840     0.8900 H       
  77 H77           -4.7728    -4.3010     0.9146 H       
  78 H78           -4.7898    -4.2914    -0.8653 H       
  79 H79           -3.7316    -6.5338    -0.8874 H       
  80 H80           -3.7146    -6.5434     0.8924 H       
  81 H81           -6.1874    -6.3604     0.9170 H       
  82 H82           -6.2044    -6.3508    -0.8628 H       
  83 H83           -5.1463    -8.5933    -0.8850 H       
  84 H84           -5.1293    -8.6028     0.8949 H       
  85 H85           -7.6020    -8.4198     0.9195 H       
  86 H86           -7.6190    -8.4102    -0.8604 H       
  87 H87           -6.5609   -10.6527    -0.8825 H       
  88 H88           -6.5439   -10.6622     0.8973 H       
  89 H89           -9.0167   -10.4792     0.9219 H       
  90 H90           -9.0337   -10.4697    -0.8579 H       
  91 H91           -7.9755   -12.7121    -0.8801 H       
  92 H92           -7.9586   -12.7217     0.8998 H       
  93 H93          -12.0124   -14.3660     0.9296 H       
  94 H94          -12.0294   -14.3565    -0.8502 H       
  95 H95          -13.4862   -16.4406     0.0425 H       
  96 H96          -12.1096   -18.7305    -0.8729 H       
  97 H97          -12.0926   -18.7400     0.9069 H       
  98 H98          -13.5162   -20.8491     0.0191 H       
  99 H99          -16.2741   -20.0688    -0.5398 H       
 100 H100         -17.6542   -22.3751    -0.3425 H       
 101 H101         -17.1328   -21.2619     1.4977 H       
 102 H102         -15.4570   -21.3977     2.0822 H       
 103 H103         -18.2455   -19.1081     1.4042 H       
 104 H104         -15.9498   -24.6547    -0.9955 H       
 105 H105         -17.0861   -25.0009    -3.2094 H       
 106 H106         -17.8415   -23.3988    -3.0335 H       
 107 H107         -17.6876   -26.5655    -1.7645 H       
 108 H108         -15.5963   -22.3552    -2.8972 H       
 109 H109         -14.8409   -23.9573    -3.0731 H       
 110 H110         -14.0173   -22.3597    -5.0811 H       
 111 H111         -14.8793   -22.6102    -6.5013 H       
 112 H112         -19.6166   -26.5973     0.4276 H       
 113 H113         -20.4729   -26.7376    -2.4975 H       
 114 H114         -21.5183   -27.1521    -1.1177 H       
 115 H115         -20.9463   -28.9168     0.0889 H       
 116 H116         -19.2527   -30.8909    -1.2387 H       
 117 H117         -20.9782   -32.5064    -0.3873 H       
 118 H118         -21.7946   -31.1513     0.4285 H       
 119 H119         -18.8718   -32.1937     0.8365 H       
 120 H120         -18.1207   -30.5837     0.9461 H       
 121 H121         -19.6555   -30.9089     1.7869 H       
 122 H122         -22.0785   -30.0085    -1.7536 H       
 123 H123         -21.2621   -31.3635    -2.5695 H       
 124 H124         -23.0242   -32.9106    -1.7632 H       
 125 H125         -23.8406   -31.5556    -0.9473 H       
 126 H126         -18.3881   -16.8317     2.3294 H       
 127 H127         -14.3647   -17.1580     3.7332 H       
 128 H128         -14.2321   -19.4361     2.8105 H       
 129 H129         -16.7777   -15.5590     4.5147 H       
 130 H130         -24.1244   -30.4127    -3.1295 H       
 131 H131         -23.3081   -31.7677    -3.9454 H       
 132 H132         -25.7799   -32.0166    -2.3591 H       
 133 H133         -25.7020   -31.9959    -4.0203 H       
 134 H134           1.4019     3.1452     0.0056 H       
 135 H135           1.9439     1.6943     0.8826 H       
 136 H136           1.9269     1.7038    -0.8972 H       
 137 H137         -21.2318   -24.8614    -0.2126 H       
 138 H138         -20.1864   -24.4469    -1.5923 H       
 139 H139         -22.0563   -24.9188    -3.1509 H       
 140 H140         -23.1017   -25.3333    -1.7712 H       
 141 H141         -22.8153   -23.0426    -0.8661 H       
 142 H142         -21.7698   -22.6281    -2.2458 H       
 143 H143         -24.0461   -21.9428    -2.6165 H       
 144 H144         -23.6534   -23.1509    -3.6899 H       
 145 C145          29.5639    19.6626    20.1010 C.3     
 146 C146          29.2940    19.1223    18.6953 C.3     
 147 C147          28.3607    20.0563    17.9688 C.2     
 148 N148          30.5568    19.0237    17.9592 N.am    
 149 N149          27.1318    20.3015    18.4649 N.am    
 150 O150          28.7155    20.5872    16.9377 O.2     
 151 C151          26.2245    21.2094    17.7586 C.3     
 152 C152          25.2371    21.7933    18.7359 C.2     
 153 N153          24.2992    22.6618    18.3084 N.am    
 154 O154          25.2863    21.4818    19.9069 O.2     
 155 C155          23.2719    23.1449    19.2344 C.3     
 156 C156          22.0860    22.2157    19.1983 C.2     
 157 O157          22.0978    21.2454    18.4707 O.2     
 158 N158          21.0123    22.4629    19.9745 N.am    
 159 C159          19.8595    21.5596    19.9394 C.3     
 160 C160          20.0986    20.3900    20.8964 C.3     
 161 C161          18.6215    22.3084    20.3610 C.2     
 162 O162          18.6950    23.4812    20.6611 O.2     
 163 N163          17.4327    21.6749    20.4043 N.am    
 164 C164          16.2293    22.4029    20.8141 C.3     
 165 C165          16.1234    22.3952    22.3404 C.3     
 166 C166          15.0136    21.7369    20.2229 C.2     
 167 O167          15.1400    20.7512    19.5277 O.2     
 168 N168          13.7858    22.2366    20.4667 N.am    
 169 C169          12.6040    21.5892    19.8920 C.3     
 170 C170          12.1576    20.4427    20.8015 C.3     
 171 C171          11.4895    22.5960    19.7690 C.2     
 172 O172          11.6651    23.7416    20.1262 O.2     
 173 N173          10.2976    22.2234    19.2620 N.am    
 174 C174          13.2394    19.3611    20.8271 C.3     
 175 C175          12.7930    18.2147    21.7367 C.3     
 176 N176          13.8288    17.1791    21.7612 N.pl3   
 177 C177          13.6487    16.0444    22.5165 C.2     
 178 C178          25.4720    20.4364    16.6737 C.3     
 179 C179          26.4769    19.7403    15.7535 C.3     
 180 O180          24.6282    19.4580    17.2843 O.3     
 181 C181          22.8315    24.5502    18.8195 C.3     
 182 C182          23.9788    25.5103    19.0014 C.2     
 183 O183          23.7944    26.8235    18.7933 O.3     
 184 O184          25.0646    25.0980    19.3344 O.2     
 185 C185          21.2811    19.5568    20.3979 C.3     
 186 C186          21.5202    18.3872    21.3549 C.3     
 187 C187          22.7027    17.5539    20.8564 C.3     
 188 N188          22.9323    16.4310    21.7752 N.3     
 189 C189          17.2762    23.1679    22.9278 C.ar    
 190 C190          17.1516    24.5258    23.1567 C.ar    
 191 C191          18.4547    22.5167    23.2423 C.ar    
 192 C192          19.5127    23.2228    23.7813 C.ar    
 193 C193          19.3920    24.5863    24.0070 C.ar    
 194 C194          18.2068    25.2364    23.6950 C.ar    
 195 N195          12.4965    15.8817    23.2486 N.pl3   
 196 N196          14.5704    15.1230    22.5383 N.2     
 197 C197           9.2142    23.2022    19.1424 C.3     
 198 C198           8.4686    23.2884    20.4492 C.2     
 199 C199           8.2530    22.7663    18.0347 C.3     
 200 C200           8.9785    22.7990    16.6880 C.3     
 201 N201           7.4238    24.1305    20.5747 N.am    
 202 O202           8.8088    22.6000    21.3880 O.2     
 203 C203           8.0574    22.2454    15.5990 C.3     
 204 O204          20.4313    25.2830    24.5375 O.3     
 205 C205           9.3595    24.2415    16.3488 C.3     
 206 C206          31.3303    17.9280    18.0918 C.2     
 207 O207          30.9809    17.0236    18.8204 O.2     
 208 C208          32.6293    17.8265    17.3346 C.3     
 209 N209          33.2884    16.5487    17.6414 N.am    
 210 C210          34.6116    16.8282    18.2284 C.3     
 211 C211          34.4867    18.2509    18.8284 C.3     
 212 C212          33.5853    18.9535    17.7791 C.3     
 213 C213          32.7688    15.3244    17.4230 C.2     
 214 O214          33.3646    14.3370    17.7982 O.2     
 215 C215          31.4473    15.1826    16.7126 C.3     
 216 C216          31.6003    15.6286    15.2571 C.3     
 217 N217          31.0198    13.7819    16.7517 N.am    
 218 C218          29.7112    13.4738    16.6550 C.2     
 219 C219          30.2285    15.6383    14.5797 C.3     
 220 C220          30.3815    16.0843    13.1242 C.3     
 221 N221          29.0679    16.0935    12.4756 N.pl3   
 222 C222          28.9553    16.4634    11.1563 C.2     
 223 N223          27.7865    16.4716    10.5792 N.2     
 224 N224          30.0753    16.8246    10.4456 N.pl3   
 225 O225          28.8877    14.3561    16.5357 O.2     
 226 C226          29.2714    12.0330    16.6953 C.3     
 227 C227          29.7019    11.4052    18.0225 C.3     
 228 N228          27.8132    11.9640    16.5726 N.am    
 229 C229          27.2298    10.8504    16.0868 C.2     
 230 O230          27.9119     9.9055    15.7511 O.2     
 231 C231          25.7297    10.7794    15.9606 C.3     
 232 C232          29.3667     9.9124    18.0130 C.3     
 233 C233          30.2030     9.2087    16.9424 C.3     
 234 C234          29.6819     9.3103    19.3838 C.3     
 235 H235          30.2390    18.9871    20.6265 H       
 236 H236          30.0208    20.6497    20.0294 H       
 237 H237          28.6244    19.7360    20.6487 H       
 238 H238          28.8372    18.1353    18.7669 H       
 239 H239          30.8363    19.7470    17.3764 H       
 240 H240          26.8481    19.8768    19.2896 H       
 241 H241          26.7998    22.0132    17.2993 H       
 242 H242          24.3044    22.9669    17.3877 H       
 243 H243          23.6790    23.1752    20.2451 H       
 244 H244          21.0029    23.2389    20.5565 H       
 245 H245          19.7268    21.1791    18.9267 H       
 246 H246          20.3193    20.7746    21.8922 H       
 247 H247          19.2060    19.7658    20.9375 H       
 248 H248          17.3740    20.7369    20.1643 H       
 249 H249          16.2885    23.4318    20.4592 H       
 250 H250          15.1841    22.8587    22.6419 H       
 251 H251          16.1536    21.3671    22.7015 H       
 252 H252          13.6847    23.0250    21.0227 H       
 253 H253          12.8489    21.1959    18.9053 H       
 254 H254          11.9980    20.8211    21.8112 H       
 255 H255          11.2283    20.0182    20.4215 H       
 256 H256          10.1572    21.3072    18.9762 H       
 257 H257          13.3990    18.9828    19.8174 H       
 258 H258          14.1687    19.7856    21.2071 H       
 259 H259          12.6334    18.5930    22.7464 H       
 260 H260          11.8637    17.7902    21.3567 H       
 261 H261          14.6418    17.2939    21.2447 H       
 262 H262          24.8638    21.1278    16.0906 H       
 263 H263          27.0851    19.0489    16.3366 H       
 264 H264          25.9408    19.1896    14.9806 H       
 265 H265          27.1205    20.4865    15.2878 H       
 266 H266          25.1032    18.8082    17.8202 H       
 267 H267          22.5274    24.5414    17.7729 H       
 268 H268          21.9921    24.8656    19.4392 H       
 269 H269          24.5598    27.4001    18.9224 H       
 270 H270          21.0604    19.1722    19.4022 H       
 271 H271          22.1737    20.1809    20.3568 H       
 272 H272          21.7409    18.7717    22.3506 H       
 273 H273          20.6276    17.7630    21.3960 H       
 274 H274          22.4820    17.1694    19.8606 H       
 275 H275          23.5953    18.1781    20.8153 H       
 276 H276          22.0979    15.8735    21.8805 H       
 277 H277          23.7089    15.8650    21.4675 H       
 278 H278          16.2286    25.0314    22.9140 H       
 279 H279          18.5480    21.4552    23.0667 H       
 280 H280          20.4329    22.7136    24.0271 H       
 281 H281          18.1104    26.2978    23.8698 H       
 282 H282          11.8106    16.5674    23.2324 H       
 283 H283          12.3694    15.0812    23.7815 H       
 284 H284          14.4433    14.3225    23.0711 H       
 285 H285           9.6321    24.1787    18.8975 H       
 286 H286           7.9036    21.7534    18.2346 H       
 287 H287           7.4009    23.4454    18.0050 H       
 288 H288           9.8800    22.1892    16.7460 H       
 289 H289           7.1517    24.6811    19.8239 H       
 290 H290           6.9439    24.1859    21.4159 H       
 291 H291           7.1559    22.8552    15.5409 H       
 292 H292           8.5742    22.2686    14.6396 H       
 293 H293           7.7859    21.2177    15.8406 H       
 294 H294          21.0385    25.6462    23.8784 H       
 295 H295           8.4580    24.8514    16.2908 H       
 296 H296          10.0157    24.6360    17.1247 H       
 297 H297           9.8763    24.2648    15.3894 H       
 298 H298          32.4404    17.8984    16.2635 H       
 299 H299          34.8397    16.1049    19.0113 H       
 300 H300          35.3809    16.8082    17.4565 H       
 301 H301          34.0012    18.2222    19.8039 H       
 302 H302          35.4613    18.7347    18.8929 H       
 303 H303          34.1791    19.3098    16.9374 H       
 304 H304          33.0297    19.7731    18.2348 H       
 305 H305          30.7007    15.8043    17.2066 H       
 306 H306          32.0273    16.6311    15.2272 H       
 307 H307          32.2597    14.9371    14.7325 H       
 308 H308          31.6784    13.0762    16.8472 H       
 309 H309          29.8015    14.6358    14.6095 H       
 310 H310          29.5691    16.3298    15.1042 H       
 311 H311          30.8084    17.0868    13.0944 H       
 312 H312          31.0408    15.3928    12.5996 H       
 313 H313          28.2776    15.8387    12.9770 H       
 314 H314          27.7071    16.7325     9.6484 H       
 315 H315          30.9451    16.8185    10.8750 H       
 316 H316          29.9959    17.0855     9.5147 H       
 317 H317          29.7316    11.4895    15.8701 H       
 318 H318          30.7759    11.5356    18.1547 H       
 319 H319          29.1733    11.8911    18.8426 H       
 320 H320          27.2676    12.7197    16.8411 H       
 321 H321          25.4300    11.1450    14.9785 H       
 322 H322          25.4037     9.7460    16.0786 H       
 323 H323          25.2705    11.3957    16.7335 H       
 324 H324          28.3076     9.7792    17.7925 H       
 325 H325          29.9642     8.1452    16.9356 H       
 326 H326          29.9784     9.6377    15.9658 H       
 327 H327          31.2621     9.3419    17.1629 H       
 328 H328          29.0861     9.8116    20.1466 H       
 329 H329          29.4431     8.2468    19.3771 H       
 330 H330          30.7410     9.4435    19.6043 H       
@<TRIPOS>BOND
   1    1    2 1
   2    1   59 1
   3    1   65 1
   4    1   66 1
   5    2    3 1
   6    2   67 1
   7    2   68 1
   8    3    4 1
   9    3   69 1
  10    3   70 1
  11    4    5 1
  12    4   71 1
  13    4   72 1
  14    5    6 1
  15    5   73 1
  16    5   74 1
  17    6    7 1
  18    6   75 1
  19    6   76 1
  20    7    8 1
  21    7   77 1
  22    7   78 1
  23    8    9 1
  24    8   79 1
  25    8   80 1
  26    9   10 1
  27    9   81 1
  28    9   82 1
  29   10   11 1
  30   10   83 1
  31   10   84 1
  32   11   12 1
  33   11   85 1
  34   11   86 1
  35   12   13 1
  36   12   87 1
  37   12   88 1
  38   13   14 1
  39   13   89 1
  40   13   90 1
  41   14   15 1
  42   14   91 1
  43   14   92 1
  44   15   16 am
  45   15   17 2
  46   16   18 1
  47   16   60 1
  48   18   19 1
  49   18   93 1
  50   18   94 1
  51   19   20 am
  52   19   21 2
  53   20   22 1
  54   20   95 1
  55   22   23 1
  56   22   96 1
  57   22   97 1
  58   23   24 am
  59   23   25 2
  60   24   26 1
  61   24   98 1
  62   26   27 1
  63   26   30 1
  64   26   99 1
  65   27   28 2
  66   27   29 am
  67   29   33 1
  68   29  100 1
  69   30   31 1
  70   30  101 1
  71   30  102 1
  72   31   32 ar
  73   31   54 ar
  74   32   51 ar
  75   32  103 1
  76   33   34 1
  77   33   35 1
  78   33  104 1
  79   34   38 1
  80   34  105 1
  81   34  106 1
  82   35   36 2
  83   35   37 am
  84   37   41 1
  85   37  107 1
  86   38   39 1
  87   38  108 1
  88   38  109 1
  89   39   40 am
  90   39   56 2
  91   40  110 1
  92   40  111 1
  93   41   42 1
  94   41   43 1
  95   41  112 1
  96   42   61 1
  97   42  113 1
  98   42  114 1
  99   43   44 2
 100   43   45 am
 101   45   46 1
 102   45  115 1
 103   46   47 1
 104   46   48 1
 105   46  116 1
 106   47   49 1
 107   47  117 1
 108   47  118 1
 109   48  119 1
 110   48  120 1
 111   48  121 1
 112   49   50 1
 113   49  122 1
 114   49  123 1
 115   50   57 1
 116   50  124 1
 117   50  125 1
 118   51   52 ar
 119   51  126 1
 120   52   53 ar
 121   52   55 1
 122   53   54 ar
 123   53  127 1
 124   54  128 1
 125   55  129 1
 126   57   58 1
 127   57  130 1
 128   57  131 1
 129   58  132 1
 130   58  133 1
 131   59  134 1
 132   59  135 1
 133   59  136 1
 134   61   62 1
 135   61  137 1
 136   61  138 1
 137   62   63 1
 138   62  139 1
 139   62  140 1
 140   63   64 1
 141   63  141 1
 142   63  142 1
 143   64  143 1
 144   64  144 1
 145  145  146 1
 146  145  235 1
 147  145  236 1
 148  145  237 1
 149  146  147 1
 150  146  148 1
 151  146  238 1
 152  147  149 am
 153  147  150 2
 154  148  206 am
 155  148  239 1
 156  149  151 1
 157  149  240 1
 158  151  152 1
 159  151  178 1
 160  151  241 1
 161  152  153 am
 162  152  154 2
 163  153  155 1
 164  153  242 1
 165  155  156 1
 166  155  181 1
 167  155  243 1
 168  156  157 2
 169  156  158 am
 170  158  159 1
 171  158  244 1
 172  159  160 1
 173  159  161 1
 174  159  245 1
 175  160  185 1
 176  160  246 1
 177  160  247 1
 178  161  162 2
 179  161  163 am
 180  163  164 1
 181  163  248 1
 182  164  165 1
 183  164  166 1
 184  164  249 1
 185  165  189 1
 186  165  250 1
 187  165  251 1
 188  166  167 2
 189  166  168 am
 190  168  169 1
 191  168  252 1
 192  169  170 1
 193  169  171 1
 194  169  253 1
 195  170  174 1
 196  170  254 1
 197  170  255 1
 198  171  172 2
 199  171  173 am
 200  173  197 1
 201  173  256 1
 202  174  175 1
 203  174  257 1
 204  174  258 1
 205  175  176 1
 206  175  259 1
 207  175  260 1
 208  176  177 1
 209  176  261 1
 210  177  195 1
 211  177  196 2
 212  178  179 1
 213  178  180 1
 214  178  262 1
 215  179  263 1
 216  179  264 1
 217  179  265 1
 218  180  266 1
 219  181  182 1
 220  181  267 1
 221  181  268 1
 222  182  183 1
 223  182  184 2
 224  183  269 1
 225  185  186 1
 226  185  270 1
 227  185  271 1
 228  186  187 1
 229  186  272 1
 230  186  273 1
 231  187  188 1
 232  187  274 1
 233  187  275 1
 234  188  276 1
 235  188  277 1
 236  189  190 ar
 237  189  191 ar
 238  190  194 ar
 239  190  278 1
 240  191  192 ar
 241  191  279 1
 242  192  193 ar
 243  192  280 1
 244  193  194 ar
 245  193  204 1
 246  194  281 1
 247  195  282 1
 248  195  283 1
 249  196  284 1
 250  197  198 1
 251  197  199 1
 252  197  285 1
 253  198  201 am
 254  198  202 2
 255  199  200 1
 256  199  286 1
 257  199  287 1
 258  200  203 1
 259  200  205 1
 260  200  288 1
 261  201  289 1
 262  201  290 1
 263  203  291 1
 264  203  292 1
 265  203  293 1
 266  204  294 1
 267  205  295 1
 268  205  296 1
 269  205  297 1
 270  206  207 2
 271  206  208 1
 272  208  209 1
 273  208  212 1
 274  208  298 1
 275  209  210 1
 276  209  213 am
 277  210  211 1
 278  210  299 1
 279  210  300 1
 280  211  212 1
 281  211  301 1
 282  211  302 1
 283  212  303 1
 284  212  304 1
 285  213  214 2
 286  213  215 1
 287  215  216 1
 288  215  217 1
 289  215  305 1
 290  216  219 1
 291  216  306 1
 292  216  307 1
 293  217  218 am
 294  217  308 1
 295  218  225 2
 296  218  226 1
 297  219  220 1
 298  219  309 1
 299  219  310 1
 300  220  221 1
 301  220  311 1
 302  220  312 1
 303  221  222 1
 304  221  313 1
 305  222  223 2
 306  222  224 1
 307  223  314 1
 308  224  315 1
 309  224  316 1
 310  226  227 1
 311  226  228 1
 312  226  317 1
 313  227  232 1
 314  227  318 1
 315  227  319 1
 316  228  229 am
 317  228  320 1
 318  229  230 2
 319  229  231 1
 320  231  321 1
 321  231  322 1
 322  231  323 1
 323  232  233 1
 324  232  234 1
 325  232  324 1
 326  233  325 1
 327  233  326 1
 328  233  327 1
 329  234  328 1
 330  234  329 1
 331  234  330 1

#	End of record

