#	Name: ASD05430604
#	Creating user name:	WinNT
#	Creation time:	15. 06. 2019 21:00

#	Modifying user name:	WinNT
#	Modification time:	15. 06. 2019 21:00

#	Program:	/corina/corina34_cracker 3.40 0067  02.08.2006

@<TRIPOS>MOLECULE
ASD05430604
  24   24    0    0    0
SMALL
NO_CHARGES


@<TRIPOS>ATOM
   1 N1            -0.0156     1.3008     0.0092 N.2     
   2 C2             0.0021    -0.0041     0.0020 C.2     
   3 N3             1.2869    -0.4196    -0.0125 N.pl3   
   4 C4             2.0745     0.7000    -0.0140 C.2     
   5 C5             1.2444     1.7603    -0.0004 C.2     
   6 C6             1.7511    -1.8090    -0.0244 C.3     
   7 C7             1.2401    -2.5282     1.2256 C.3     
   8 C8             1.2173    -2.5144    -1.2727 C.3     
   9 C9             1.6587     3.2093     0.0027 C.3     
  10 C10            0.9915     3.9329    -1.1687 C.3     
  11 H11           -0.8669    -0.6454     0.0072 H       
  12 H12            3.1541     0.7276    -0.0238 H       
  13 H13            2.8409    -1.8279    -0.0344 H       
  14 H14            0.1503    -2.5093     1.2357 H       
  15 H15            1.5855    -3.5620     1.2168 H       
  16 H16            1.6204    -2.0256     2.1150 H       
  17 H17            1.5627    -3.5482    -1.2815 H       
  18 H18            0.1275    -2.4955    -1.2626 H       
  19 H19            1.5813    -2.0021    -2.1632 H       
  20 H20            1.3503     3.6733     0.9395 H       
  21 H21            2.7419     3.2777    -0.0974 H       
  22 H22            1.2999     3.4689    -2.1055 H       
  23 H23           -0.0917     3.8645    -1.0686 H       
  24 H24            1.2912     4.9809    -1.1665 H       
@<TRIPOS>BOND
   1    1    2 2
   2    1    5 1
   3    2    3 1
   4    2   11 1
   5    3    4 1
   6    3    6 1
   7    4    5 2
   8    4   12 1
   9    5    9 1
  10    6    7 1
  11    6    8 1
  12    6   13 1
  13    7   14 1
  14    7   15 1
  15    7   16 1
  16    8   17 1
  17    8   18 1
  18    8   19 1
  19    9   10 1
  20    9   20 1
  21    9   21 1
  22   10   22 1
  23   10   23 1
  24   10   24 1

#	End of record

