#	Name: ASD01916421
#	Creating user name:	WinNT
#	Creation time:	15. 06. 2019 20:07

#	Modifying user name:	WinNT
#	Modification time:	15. 06. 2019 20:07

#	Program:	/corina/corina34_cracker 3.40 0067  02.08.2006

@<TRIPOS>MOLECULE
ASD01916421
  36   38    0    0    0
SMALL
NO_CHARGES


@<TRIPOS>ATOM
   1 C1            -0.1867     1.1971    -0.0436 C.ar    
   2 C2            -0.2166    -0.1978    -0.0628 C.ar    
   3 C3             0.9780    -0.8952    -0.0879 C.ar    
   4 C4             2.1654    -0.1762    -0.0932 C.ar    
   5 C5             2.1223     1.2056    -0.0733 C.ar    
   6 N6             0.9717     1.8466    -0.0495 N.ar    
   7 C7            -1.4144     1.9339    -0.0235 C.1     
   8 C8            -2.4209     2.5380    -0.0070 C.1     
   9 C9            -3.6829     3.2955     0.0137 C.3     
  10 C10           -3.3777     4.7946     0.0321 C.3     
  11 N11           -4.6292     5.5491    -0.0716 N.pl3   
  12 N12           -5.4799     5.8876     0.9885 N.2     
  13 C13           -6.4948     6.5604     0.5083 C.2     
  14 C14           -6.3361     6.6797    -0.8726 C.2     
  15 C15           -5.1717     6.0526    -1.2160 C.2     
  16 C16           -4.6060     5.9386    -2.5786 C.ar    
  17 C17           -3.7093     4.9134    -2.8807 C.ar    
  18 C18           -3.1852     4.8113    -4.1525 C.ar    
  19 C19           -3.5475     5.7251    -5.1291 C.ar    
  20 C20           -4.4377     6.7452    -4.8342 C.ar    
  21 C21           -4.9719     6.8527    -3.5670 C.ar    
  22 F22           -3.0306     5.6213    -6.3730 F       
  23 H23           -1.1589    -0.7256    -0.0576 H       
  24 H24            0.9865    -1.9751    -0.1028 H       
  25 H25            3.1143    -0.6916    -0.1123 H       
  26 H26            3.0448     1.7672    -0.0774 H       
  27 H27           -4.2660     3.0543    -0.8750 H       
  28 H28           -4.2516     3.0296     0.9047 H       
  29 H29           -2.8747     5.0516     0.9643 H       
  30 H30           -2.7321     5.0443    -0.8100 H       
  31 H31           -7.3176     6.9567     1.0846 H       
  32 H32           -7.0115     7.1818    -1.5494 H       
  33 H33           -3.4258     4.2011    -2.1199 H       
  34 H34           -2.4910     4.0180    -4.3873 H       
  35 H35           -4.7166     7.4552    -5.5988 H       
  36 H36           -5.6688     7.6457    -3.3392 H       
@<TRIPOS>BOND
   1    1    2 ar
   2    1    6 ar
   3    1    7 1
   4    2    3 ar
   5    2   23 1
   6    3    4 ar
   7    3   24 1
   8    4    5 ar
   9    4   25 1
  10    5    6 ar
  11    5   26 1
  12    7    8 3
  13    8    9 1
  14    9   10 1
  15    9   27 1
  16    9   28 1
  17   10   11 1
  18   10   29 1
  19   10   30 1
  20   11   12 1
  21   11   15 1
  22   12   13 2
  23   13   14 1
  24   13   31 1
  25   14   15 2
  26   14   32 1
  27   15   16 1
  28   16   17 ar
  29   16   21 ar
  30   17   18 ar
  31   17   33 1
  32   18   19 ar
  33   18   34 1
  34   19   20 ar
  35   19   22 1
  36   20   21 ar
  37   20   35 1
  38   21   36 1

#	End of record

