#	Name: ASD09740316
#	Creating user name:	WinNT
#	Creation time:	15. 06. 2019 21:23

#	Modifying user name:	WinNT
#	Modification time:	15. 06. 2019 21:23

#	Program:	/corina/corina34_cracker 3.40 0067  02.08.2006

@<TRIPOS>MOLECULE
ASD09740316
  45   47    0    0    0
SMALL
NO_CHARGES


@<TRIPOS>ATOM
   1 O1            -0.0144     1.2085     0.0087 O.3     
   2 N2             0.0021    -0.0041     0.0020 N.2     
   3 C3             1.2413     1.6828    -0.0008 C.2     
   4 N4             2.0459     0.6359    -0.0141 N.2     
   5 C5             1.2348    -0.4424    -0.0121 C.2     
   6 C6             1.6623    -1.8639    -0.0234 C.ar    
   7 C7             1.6455     3.1033     0.0023 C.ar    
   8 C8             2.9990     3.4455    -0.0092 C.ar    
   9 C9             3.3748     4.7723    -0.0069 C.ar    
  10 C10            2.4105     5.7696     0.0070 C.ar    
  11 C11            1.0574     5.4348     0.0190 C.ar    
  12 C12            0.6742     4.1075     0.0108 C.ar    
  13 C13            3.0173    -2.1863    -0.0376 C.ar    
  14 C14            3.4093    -3.5099    -0.0481 C.ar    
  15 C15            2.4594    -4.5150    -0.0445 C.ar    
  16 C16            1.1123    -4.2004    -0.0309 C.ar    
  17 C17            0.7095    -2.8806    -0.0140 C.ar    
  18 O18            2.7857     7.0754     0.0092 O.3     
  19 C19            4.1886     7.3473    -0.0031 C.3     
  20 C20            4.4148     8.8605     0.0016 C.3     
  21 O21            0.1145     6.4147     0.0334 O.3     
  22 C22           -1.2528     5.9993     0.0451 C.3     
  23 C23           -2.1600     7.2313     0.0605 C.3     
  24 C24            0.0829    -5.3011    -0.0281 C.3     
  25 O25           -0.2306    -5.6566     1.3200 O.3     
  26 H26            3.7517     2.6711    -0.0196 H       
  27 H27            4.4222     5.0356    -0.0154 H       
  28 H28           -0.3738     3.8466     0.0201 H       
  29 H29            3.7599    -1.4021    -0.0407 H       
  30 H30            4.4597    -3.7609    -0.0595 H       
  31 H31            2.7704    -5.5492    -0.0528 H       
  32 H32           -0.3424    -2.6361    -0.0030 H       
  33 H33            4.6516     6.9080     0.8805 H       
  34 H34            4.6344     6.9160    -0.8993 H       
  35 H35            3.9690     9.2918     0.8979 H       
  36 H36            5.4849     9.0679    -0.0078 H       
  37 H37            3.9518     9.2998    -0.8820 H       
  38 H38           -1.4601     5.4065    -0.8458 H       
  39 H39           -1.4421     5.3976     0.9341 H       
  40 H40           -3.2029     6.9144     0.0694 H       
  41 H41           -1.9527     7.8241     0.9514 H       
  42 H42           -1.9707     7.8330    -0.8285 H       
  43 H43           -0.8198    -4.9556    -0.5320 H       
  44 H44            0.4801    -6.1714    -0.5504 H       
  45 H45           -0.8884    -6.3611     1.3982 H       
@<TRIPOS>BOND
   1    1    2 1
   2    1    3 1
   3    2    5 2
   4    3    4 2
   5    3    7 1
   6    4    5 1
   7    5    6 1
   8    6   13 ar
   9    6   17 ar
  10    7    8 ar
  11    7   12 ar
  12    8    9 ar
  13    8   26 1
  14    9   10 ar
  15    9   27 1
  16   10   11 ar
  17   10   18 1
  18   11   12 ar
  19   11   21 1
  20   12   28 1
  21   13   14 ar
  22   13   29 1
  23   14   15 ar
  24   14   30 1
  25   15   16 ar
  26   15   31 1
  27   16   17 ar
  28   16   24 1
  29   17   32 1
  30   18   19 1
  31   19   20 1
  32   19   33 1
  33   19   34 1
  34   20   35 1
  35   20   36 1
  36   20   37 1
  37   21   22 1
  38   22   23 1
  39   22   38 1
  40   22   39 1
  41   23   40 1
  42   23   41 1
  43   23   42 1
  44   24   25 1
  45   24   43 1
  46   24   44 1
  47   25   45 1

#	End of record

