#	Name: ASD01811516
#	Creating user name:	WinNT
#	Creation time:	15. 06. 2019 19:26

#	Modifying user name:	WinNT
#	Modification time:	15. 06. 2019 19:26

#	Program:	/corina/corina34_cracker 3.40 0067  02.08.2006

@<TRIPOS>MOLECULE
ASD01811516
  66   69    0    0    0
SMALL
NO_CHARGES


@<TRIPOS>ATOM
   1 N1            -0.1836     1.5657    -0.3639 N.am    
   2 C2            -0.2701     0.2966    -0.8093 C.2     
   3 O3             0.7271    -0.2808    -1.1975 O.2     
   4 N4            -1.4619    -0.3326    -0.8244 N.am    
   5 C5            -1.5559    -1.7121    -1.3085 C.3     
   6 O6            -3.4451    -2.1618     0.1434 O.3     
   7 C7            -3.0081    -2.1857    -1.2204 C.3     
   8 C8            -3.1149    -3.6428    -1.7191 C.3     
   9 C9            -4.1391    -4.2568    -0.7261 C.3     
  10 C10           -3.7855    -3.4897     0.5729 C.3     
  11 C11            1.0686     2.1798    -0.2381 C.ar    
  12 C12            1.1912     3.5535    -0.4210 C.ar    
  13 C13            2.4263     4.1644    -0.2977 C.ar    
  14 C14            3.5440     3.4153     0.0079 C.ar    
  15 C15            3.4307     2.0364     0.1936 C.ar    
  16 C16            2.1841     1.4205     0.0740 C.ar    
  17 C17            4.8871     4.0856     0.1406 C.3     
  18 C18            5.6001     4.0716    -1.2131 C.3     
  19 C19            4.6266     1.2318     0.5205 C.2     
  20 O20            5.5957     1.2576    -0.2129 O.2     
  21 N21            4.6428     0.4694     1.6319 N.am    
  22 C22            5.8598    -0.2529     2.0266 C.3     
  23 C23            6.2023     0.1124     3.4743 C.3     
  24 C24            4.9900    -0.1642     4.3665 C.3     
  25 C25            3.8134     0.7039     3.9148 C.3     
  26 C26            3.4455     0.3498     2.4750 C.3     
  27 F27            4.6377    -1.5145     4.2685 F       
  28 C28            5.3345     0.1620     5.7969 C.ar    
  29 C29            4.5225    -0.2915     6.8213 C.ar    
  30 C30            4.8318     0.0034     8.1329 C.ar    
  31 C31            5.9677     0.7609     8.4256 C.ar    
  32 C32            6.7830     1.2149     7.3868 C.ar    
  33 C33            6.4644     0.9086     6.0801 C.ar    
  34 C34            6.2948     1.0713     9.7847 C.1     
  35 N35            6.5542     1.3174    10.8630 N.1     
  36 Cl36          -0.2097     4.5038    -0.8057 Cl      
  37 H37           -0.9891     2.0550    -0.1343 H       
  38 H38           -2.2574     0.1280    -0.5147 H       
  39 H39           -1.2213    -1.7571    -2.3449 H       
  40 H40           -0.9259    -2.3562    -0.6950 H       
  41 H41           -3.6460    -1.5404    -1.8244 H       
  42 H42           -3.4960    -3.6765    -2.7398 H       
  43 H43           -2.1525    -4.1493    -1.6463 H       
  44 H44           -5.1624    -4.0491    -1.0388 H       
  45 H45           -3.9766    -5.3279    -0.6064 H       
  46 H46           -2.9345    -3.9569     1.0684 H       
  47 H47           -4.6455    -3.4621     1.2420 H       
  48 H48            2.5160     5.2311    -0.4414 H       
  49 H49            2.0902     0.3546     0.2204 H       
  50 H50            4.7482     5.1162     0.4673 H       
  51 H51            5.4897     3.5500     0.8742 H       
  52 H52            6.5716     4.5564    -1.1171 H       
  53 H53            5.7391     3.0410    -1.5398 H       
  54 H54            4.9976     4.6072    -1.9467 H       
  55 H55            5.6881    -1.3266     1.9515 H       
  56 H56            6.6833     0.0341     1.3727 H       
  57 H57            7.0468    -0.4889     3.8113 H       
  58 H58            6.4622     1.1695     3.5311 H       
  59 H59            2.9575     0.5235     4.5651 H       
  60 H60            4.0957     1.7554     3.9674 H       
  61 H61            2.6765     1.0342     2.1169 H       
  62 H62            3.0728    -0.6738     2.4373 H       
  63 H63            3.6442    -0.8773     6.5935 H       
  64 H64            4.1968    -0.3505     8.9316 H       
  65 H65            7.6630     1.8013     7.6062 H       
  66 H66            7.0964     1.2556     5.2759 H       
@<TRIPOS>BOND
   1    1    2 am
   2    1   11 1
   3    1   37 1
   4    2    3 2
   5    2    4 am
   6    4    5 1
   7    4   38 1
   8    5    7 1
   9    5   39 1
  10    5   40 1
  11    6    7 1
  12    6   10 1
  13    7    8 1
  14    7   41 1
  15    8    9 1
  16    8   42 1
  17    8   43 1
  18    9   10 1
  19    9   44 1
  20    9   45 1
  21   10   46 1
  22   10   47 1
  23   11   12 ar
  24   11   16 ar
  25   12   13 ar
  26   12   36 1
  27   13   14 ar
  28   13   48 1
  29   14   15 ar
  30   14   17 1
  31   15   16 ar
  32   15   19 1
  33   16   49 1
  34   17   18 1
  35   17   50 1
  36   17   51 1
  37   18   52 1
  38   18   53 1
  39   18   54 1
  40   19   20 2
  41   19   21 am
  42   21   22 1
  43   21   26 1
  44   22   23 1
  45   22   55 1
  46   22   56 1
  47   23   24 1
  48   23   57 1
  49   23   58 1
  50   24   25 1
  51   24   27 1
  52   24   28 1
  53   25   26 1
  54   25   59 1
  55   25   60 1
  56   26   61 1
  57   26   62 1
  58   28   29 ar
  59   28   33 ar
  60   29   30 ar
  61   29   63 1
  62   30   31 ar
  63   30   64 1
  64   31   32 ar
  65   31   34 1
  66   32   33 ar
  67   32   65 1
  68   33   66 1
  69   34   35 3

#	End of record

