#	Name: ASD04840037
#	Creating user name:	WinNT
#	Creation time:	15. 06. 2019 20:52

#	Modifying user name:	WinNT
#	Modification time:	15. 06. 2019 20:52

#	Program:	/corina/corina34_cracker 3.40 0067  02.08.2006

@<TRIPOS>MOLECULE
ASD04840037
  35   36    0    0    0
SMALL
NO_CHARGES


@<TRIPOS>ATOM
   1 P1            -0.0198     1.6058     0.0109 P.3     
   2 O2             0.0021    -0.0041     0.0020 O.3     
   3 O3             1.4907     2.1630    -0.0006 O.3     
   4 O4            -0.7356     2.0960    -1.1881 O.2     
   5 C5             0.5087    -0.7695    -1.0932 C.3     
   6 N6             0.3861    -2.1974    -0.7890 N.pl3   
   7 C7            -2.7247    -2.9702    -2.3601 C.ar    
   8 N8            -2.8910    -4.2502    -2.1196 N.ar    
   9 C9            -1.9843    -4.9450    -1.4212 C.ar    
  10 C10           -0.8459    -4.2897    -0.9441 C.ar    
  11 C11           -0.7158    -2.9070    -1.2322 C.ar    
  12 N12           -1.6668    -2.3056    -1.9314 N.ar    
  13 C13            0.0295    -5.1849    -0.2110 C.2     
  14 C14           -0.3974    -6.4311    -0.1279 C.2     
  15 S15           -1.9331    -6.6371    -0.9489 S.3     
  16 Br16           0.5292    -7.8180     0.7632 Br      
  17 C17           -0.8730     2.1937     1.5107 C.3     
  18 C18           -0.1330     1.6868     2.7503 C.3     
  19 C19            2.3858     1.9631    -1.0964 C.3     
  20 C20            3.7321     2.6181    -0.7814 C.3     
  21 H21           -0.0626    -0.5393    -1.9925 H       
  22 H22            1.5576    -0.5214    -1.2555 H       
  23 H23            1.0776    -2.6453    -0.2770 H       
  24 H24           -3.4756    -2.4443    -2.9310 H       
  25 H25            0.9583    -4.8570     0.2319 H       
  26 H26           -0.8878     3.2836     1.5167 H       
  27 H27           -1.8956     1.8164     1.5185 H       
  28 H28           -0.1183     0.5970     2.7443 H       
  29 H29            0.8895     2.0641     2.7425 H       
  30 H30           -0.6432     2.0384     3.6471 H       
  31 H31            2.5303     0.8947    -1.2572 H       
  32 H32            1.9648     2.4122    -1.9960 H       
  33 H33            4.4148     2.4656    -1.6172 H       
  34 H34            3.5875     3.6865    -0.6205 H       
  35 H35            4.1530     2.1690     0.1182 H       
@<TRIPOS>BOND
   1    1    2 1
   2    1    3 1
   3    1    4 2
   4    1   17 1
   5    2    5 1
   6    3   19 1
   7    5    6 1
   8    5   21 1
   9    5   22 1
  10    6   11 1
  11    6   23 1
  12    7    8 ar
  13    7   12 ar
  14    7   24 1
  15    8    9 ar
  16    9   10 ar
  17    9   15 1
  18   10   11 ar
  19   10   13 1
  20   11   12 ar
  21   13   14 2
  22   13   25 1
  23   14   15 1
  24   14   16 1
  25   17   18 1
  26   17   26 1
  27   17   27 1
  28   18   28 1
  29   18   29 1
  30   18   30 1
  31   19   20 1
  32   19   31 1
  33   19   32 1
  34   20   33 1
  35   20   34 1
  36   20   35 1

#	End of record

