#	Name: ASD00170158
#	Creating user name:	WinNT
#	Creation time:	15. 06. 2019 18:31

#	Modifying user name:	WinNT
#	Modification time:	15. 06. 2019 18:31

#	Program:	/corina/corina34_cracker 3.40 0067  02.08.2006

@<TRIPOS>MOLECULE
ASD00170158
  32   33    0    0    0
SMALL
NO_CHARGES


@<TRIPOS>ATOM
   1 C1            -0.8251     1.4562     0.9938 C.2     
   2 C2            -1.0213     0.1689     1.2325 C.2     
   3 C3            -1.3318    -0.5914     0.0401 C.2     
   4 C4            -1.3574     0.1874    -1.0938 C.2     
   5 S5            -1.0177     1.8136    -0.7130 S.3     
   6 N6            -1.6262    -0.2824    -2.3633 N.pl3   
   7 C7            -1.5893    -2.0311     0.0408 C.2     
   8 C8            -2.9749    -2.5346     0.1642 C.ar    
   9 O9            -0.6633    -2.8153    -0.0603 O.2     
  10 C10           -0.4877     2.4788     2.0481 C.3     
  11 C11           -0.9300    -0.4434     2.6064 C.3     
  12 C12           -3.2341    -3.9028     0.0724 C.ar    
  13 C13           -4.5286    -4.3658     0.1884 C.ar    
  14 C14           -5.5684    -3.4771     0.3952 C.ar    
  15 C15           -5.3182    -2.1192     0.4872 C.ar    
  16 C16           -4.0279    -1.6437     0.3788 C.ar    
  17 C17           -4.8105    -5.8429     0.0890 C.3     
  18 H18           -1.7353    -1.2341    -2.5153 H       
  19 H19           -1.7060     0.3393    -3.1036 H       
  20 H20            0.5949     2.5456     2.1562 H       
  21 H21           -0.8839     3.4501     1.7521 H       
  22 H22           -0.9300     2.1803     2.9985 H       
  23 H23           -1.9092    -0.4116     3.0842 H       
  24 H24           -0.6006    -1.4790     2.5215 H       
  25 H25           -0.2141     0.1174     3.2073 H       
  26 H26           -2.4232    -4.5975    -0.0894 H       
  27 H27           -6.5800    -3.8446     0.4850 H       
  28 H28           -6.1344    -1.4305     0.6484 H       
  29 H29           -3.8339    -0.5837     0.4507 H       
  30 H30           -4.7545    -6.2910     1.0811 H       
  31 H31           -5.8081    -5.9955    -0.3229 H       
  32 H32           -4.0728    -6.3105    -0.5630 H       
@<TRIPOS>BOND
   1    1    2 2
   2    1   10 1
   3    1    5 1
   4    2    3 1
   5    2   11 1
   6    3    4 2
   7    3    7 1
   8    4    5 1
   9    4    6 1
  10    6   18 1
  11    6   19 1
  12    7    8 1
  13    7    9 2
  14    8   12 ar
  15    8   16 ar
  16   10   20 1
  17   10   21 1
  18   10   22 1
  19   11   23 1
  20   11   24 1
  21   11   25 1
  22   12   13 ar
  23   12   26 1
  24   13   14 ar
  25   13   17 1
  26   14   15 ar
  27   14   27 1
  28   15   16 ar
  29   15   28 1
  30   16   29 1
  31   17   30 1
  32   17   31 1
  33   17   32 1

#	End of record

