#	Name: ASD01150771
#	Creating user name:	WinNT
#	Creation time:	15. 06. 2019 19:05

#	Modifying user name:	WinNT
#	Modification time:	15. 06. 2019 19:05

#	Program:	/corina/corina34_cracker 3.40 0067  02.08.2006

@<TRIPOS>MOLECULE
ASD01150771
  53   56    0    0    0
SMALL
NO_CHARGES


@<TRIPOS>ATOM
   1 C1            -0.0034     1.4275     0.0439 C.2     
   2 C2            -0.5036     1.0184    -1.3175 C.3     
   3 F3            -1.6221     0.1905    -1.1739 F       
   4 F4            -0.8580     2.1589    -2.0462 F       
   5 F5             0.5050     0.3261    -1.9963 F       
   6 N6             3.5644     2.3089     0.4770 N.ar    
   7 C7             2.4628     1.6142     0.3657 C.ar    
   8 C8             1.2157     2.2341     0.1654 C.ar    
   9 C9             1.1525     3.6368     0.0827 C.ar    
  10 C10            2.3650     4.3592     0.2073 C.ar    
  11 C11            2.3842     5.7579     0.1362 C.ar    
  12 C12            3.5836     6.4279     0.2624 C.ar    
  13 C13            4.7740     5.7200     0.4594 C.ar    
  14 C14            4.7769     4.3612     0.5313 C.ar    
  15 C15            3.5734     3.6472     0.4074 C.ar    
  16 C16           -0.1339     4.3329    -0.1274 C.ar    
  17 C17           -1.1322     4.2713     0.8473 C.ar    
  18 C18           -2.3304     4.9238     0.6449 C.ar    
  19 C19           -2.5447     5.6380    -0.5209 C.ar    
  20 C20           -1.5600     5.7029    -1.4911 C.ar    
  21 C21           -0.3547     5.0603    -1.2990 C.ar    
  22 C22            2.5302     0.1112     0.4538 C.3     
  23 N23            3.6096     7.8222     0.1925 N.3     
  24 C24            4.9120     8.3071     0.3423 C.3     
  25 C25            4.9371     9.8437     0.4946 C.3     
  26 C26            4.7439    10.4751    -0.8606 C.3     
  27 C27            3.2657    10.7944    -1.1604 C.3     
  28 C28            2.3285     9.6638    -0.7028 C.3     
  29 C29            2.9049     8.3048    -1.0117 C.3     
  30 O30           -0.6117     1.0940     1.0391 O.2     
  31 H31            1.4672     6.3076    -0.0165 H       
  32 H32            5.7044     6.2599     0.5555 H       
  33 H33            5.7055     3.8311     0.6835 H       
  34 H34           -0.9666     3.7137     1.7573 H       
  35 H35           -3.1033     4.8770     1.3977 H       
  36 H36           -3.4849     6.1468    -0.6745 H       
  37 H37           -1.7341     6.2614    -2.3989 H       
  38 H38            0.4146     5.1154    -2.0550 H       
  39 H39            2.4888    -0.1937     1.4994 H       
  40 H40            1.6877    -0.3224    -0.0849 H       
  41 H41            3.4630    -0.2372     0.0104 H       
  42 H42            5.3598     7.8550     1.2272 H       
  43 H43            5.4981     8.0273    -0.5331 H       
  44 H44            4.1335    10.1573     1.1609 H       
  45 H45            5.8970    10.1536     0.9077 H       
  46 H46            5.3197    11.3996    -0.9038 H       
  47 H47            5.1187     9.7931    -1.6237 H       
  48 H48            2.9899    11.7142    -0.6446 H       
  49 H49            3.1455    10.9420    -2.2337 H       
  50 H50            2.1695     9.7468     0.3724 H       
  51 H51            1.3703     9.7680    -1.2118 H       
  52 H52            3.6062     8.3825    -1.8425 H       
  53 H53            2.1020     7.6143    -1.2700 H       
@<TRIPOS>BOND
   1    1    2 1
   2    1    8 1
   3    1   30 2
   4    2    3 1
   5    2    4 1
   6    2    5 1
   7    6    7 ar
   8    6   15 ar
   9    7    8 ar
  10    7   22 1
  11    8    9 ar
  12    9   10 ar
  13    9   16 1
  14   10   11 ar
  15   10   15 ar
  16   11   12 ar
  17   11   31 1
  18   12   13 ar
  19   12   23 1
  20   13   14 ar
  21   13   32 1
  22   14   15 ar
  23   14   33 1
  24   16   17 ar
  25   16   21 ar
  26   17   18 ar
  27   17   34 1
  28   18   19 ar
  29   18   35 1
  30   19   20 ar
  31   19   36 1
  32   20   21 ar
  33   20   37 1
  34   21   38 1
  35   22   39 1
  36   22   40 1
  37   22   41 1
  38   23   24 1
  39   23   29 1
  40   24   25 1
  41   24   42 1
  42   24   43 1
  43   25   26 1
  44   25   44 1
  45   25   45 1
  46   26   27 1
  47   26   46 1
  48   26   47 1
  49   27   28 1
  50   27   48 1
  51   27   49 1
  52   28   29 1
  53   28   50 1
  54   28   51 1
  55   29   52 1
  56   29   53 1

#	End of record

