#	Name: ASD02039033
#	Creating user name:	WinNT
#	Creation time:	15. 06. 2019 20:17

#	Modifying user name:	WinNT
#	Modification time:	15. 06. 2019 20:17

#	Program:	/corina/corina34_cracker 3.40 0067  02.08.2006

@<TRIPOS>MOLECULE
ASD02039033
  42   45    0    0    0
SMALL
NO_CHARGES


@<TRIPOS>ATOM
   1 N1            -0.0167     1.2911     0.1670 N.2     
   2 N2            -0.0037     0.0049     0.1936 N.2     
   3 C3             1.2121     1.7350     0.0620 C.2     
   4 O4             2.0225     0.6610     0.0220 O.3     
   5 C5             1.2228    -0.4198     0.1074 C.2     
   6 N6             1.6033     3.0608     0.0032 N.pl3   
   7 C7             0.6407     4.0702    -0.0872 C.ar    
   8 C8             1.6683    -1.8595     0.1036 C.3     
   9 O9             1.7047    -2.3433    -1.2405 O.3     
  10 C10            2.0894    -3.6348    -1.4214 C.ar    
  11 C11            2.1453    -4.1627    -2.6959 C.ar    
  12 C12            2.4305    -4.4168    -0.3208 C.ar    
  13 C13            2.8233    -5.7269    -0.4852 C.ar    
  14 C14            2.8815    -6.2800    -1.7598 C.ar    
  15 C15            2.5421    -5.4916    -2.8756 C.ar    
  16 C16            1.0181     5.4030     0.0147 C.ar    
  17 C17           -0.6950     3.7428    -0.2848 C.ar    
  18 C18           -1.6434     4.7424    -0.3736 C.ar    
  19 C19           -1.2649     6.0684    -0.2660 C.ar    
  20 C20            0.0642     6.3979    -0.0750 C.ar    
  21 N21            3.2721    -7.5908    -1.9454 N.am    
  22 C22            3.3288    -8.1279    -3.1765 C.2     
  23 C23            2.9943    -7.3813    -4.3265 C.2     
  24 C24            2.6073    -6.0869    -4.2117 C.2     
  25 O25            3.6782    -9.2888    -3.3027 O.2     
  26 C26            2.4665     5.7631     0.2234 C.3     
  27 F27            2.5956     7.1543     0.2941 F       
  28 F28            2.9220     5.1912     1.4161 F       
  29 F29            3.2264     5.2780    -0.8464 F       
  30 H30            2.5457     3.2898     0.0247 H       
  31 H31            2.6629    -1.9332     0.5434 H       
  32 H32            0.9681    -2.4580     0.6864 H       
  33 H33            1.8840    -3.5535    -3.5485 H       
  34 H34            2.3870    -3.9920     0.6712 H       
  35 H35            3.0864    -6.3241     0.3754 H       
  36 H36           -0.9911     2.7076    -0.3693 H       
  37 H37           -2.6818     4.4886    -0.5276 H       
  38 H38           -2.0087     6.8483    -0.3362 H       
  39 H39            0.3563     7.4343     0.0090 H       
  40 H40            3.5096    -8.1322    -1.1763 H       
  41 H41            3.0503    -7.8416    -5.3019 H       
  42 H42            2.3494    -5.5085    -5.0866 H       
@<TRIPOS>BOND
   1    1    2 1
   2    1    3 2
   3    2    5 2
   4    3    4 1
   5    3    6 1
   6    4    5 1
   7    5    8 1
   8    6    7 1
   9    6   30 1
  10    7   16 ar
  11    7   17 ar
  12    8    9 1
  13    8   31 1
  14    8   32 1
  15    9   10 1
  16   10   11 ar
  17   10   12 ar
  18   11   15 ar
  19   11   33 1
  20   12   13 ar
  21   12   34 1
  22   13   14 ar
  23   13   35 1
  24   14   15 ar
  25   14   21 1
  26   15   24 1
  27   16   26 1
  28   16   20 ar
  29   17   18 ar
  30   17   36 1
  31   18   19 ar
  32   18   37 1
  33   19   20 ar
  34   19   38 1
  35   20   39 1
  36   21   22 am
  37   21   40 1
  38   22   23 1
  39   22   25 2
  40   23   24 2
  41   23   41 1
  42   24   42 1
  43   26   27 1
  44   26   28 1
  45   26   29 1

#	End of record

