#	Name: ASD01880276
#	Creating user name:	WinNT
#	Creation time:	15. 06. 2019 19:40

#	Modifying user name:	WinNT
#	Modification time:	15. 06. 2019 19:40

#	Program:	/corina/corina34_cracker 3.40 0067  02.08.2006

@<TRIPOS>MOLECULE
ASD01880276
  49   51    0    0    0
SMALL
NO_CHARGES


@<TRIPOS>ATOM
   1 C1            -0.0180     1.4798     0.0102 C.ar    
   2 C2             0.0021    -0.0041     0.0020 C.2     
   3 C3            -0.4771    -0.7020     1.0725 C.2     
   4 N4            -0.4626    -2.0582     1.0736 N.am    
   5 C5             0.0235    -2.7446     0.0227 C.2     
   6 C6             0.5262    -2.0618    -1.0989 C.2     
   7 C7             0.5116    -0.7001    -1.1154 C.2     
   8 O8             0.0284    -3.9649     0.0438 O.2     
   9 C9            -0.9824    -2.7857     2.2341 C.3     
  10 C10            1.1784     2.1943     0.0026 C.ar    
  11 C11            1.1565     3.5734     0.0097 C.ar    
  12 C12           -0.0556     4.2496     0.0249 C.ar    
  13 C13           -1.2490     3.5407     0.0330 C.ar    
  14 C14           -1.2335     2.1615     0.0196 C.ar    
  15 O15           -0.0740     5.6085     0.0324 O.3     
  16 C16           -1.3559     6.2399     0.0480 C.3     
  17 C17           -2.4538    -3.0495     2.0438 C.2     
  18 N18           -3.1482    -3.7100     2.9915 N.am    
  19 O19           -3.0133    -2.6674     1.0378 O.2     
  20 C20           -2.4724    -4.1714     4.2067 C.3     
  21 C21           -4.5786    -3.9664     2.8065 C.3     
  22 C22           -4.7656    -5.2875     2.1059 C.ar    
  23 C23           -4.8886    -6.4494     2.8439 C.ar    
  24 C24           -5.0608    -7.6623     2.2005 C.ar    
  25 C25           -5.1097    -7.7110     0.8189 C.ar    
  26 C26           -4.9866    -6.5480     0.0818 C.ar    
  27 C27           -4.8199    -5.3361     0.7252 C.ar    
  28 Cl28          -5.2148    -9.1225     3.1268 Cl      
  29 H29           -0.8708    -0.1700     1.9259 H       
  30 H30            0.9165    -2.6125    -1.9419 H       
  31 H31            0.8933    -0.1595    -1.9689 H       
  32 H32           -0.4535    -3.7334     2.3356 H       
  33 H33           -0.8337    -2.1885     3.1337 H       
  34 H34            2.1218     1.6687    -0.0085 H       
  35 H35            2.0834     4.1277     0.0039 H       
  36 H36           -2.1906     4.0695     0.0451 H       
  37 H37           -2.1623     1.6104     0.0259 H       
  38 H38           -1.2278     7.3223     0.0525 H       
  39 H39           -1.9174     5.9442    -0.8383 H       
  40 H40           -1.9004     5.9347     0.9416 H       
  41 H41           -2.5243    -3.3940     4.9688 H       
  42 H42           -2.9615    -5.0736     4.5740 H       
  43 H43           -1.4286    -4.3901     3.9812 H       
  44 H44           -5.0708    -3.9977     3.7785 H       
  45 H45           -5.0154    -3.1704     2.2035 H       
  46 H46           -4.8500    -6.4109     3.9225 H       
  47 H47           -5.2437    -8.6574     0.3162 H       
  48 H48           -5.0247    -6.5859    -0.9968 H       
  49 H49           -4.7240    -4.4277     0.1490 H       
@<TRIPOS>BOND
   1    1    2 1
   2    1   10 ar
   3    1   14 ar
   4    2    3 2
   5    2    7 1
   6    3    4 1
   7    3   29 1
   8    4    5 am
   9    4    9 1
  10    5    6 1
  11    5    8 2
  12    6    7 2
  13    6   30 1
  14    7   31 1
  15    9   17 1
  16    9   32 1
  17    9   33 1
  18   10   11 ar
  19   10   34 1
  20   11   12 ar
  21   11   35 1
  22   12   13 ar
  23   12   15 1
  24   13   14 ar
  25   13   36 1
  26   14   37 1
  27   15   16 1
  28   16   38 1
  29   16   39 1
  30   16   40 1
  31   17   18 am
  32   17   19 2
  33   18   20 1
  34   18   21 1
  35   20   41 1
  36   20   42 1
  37   20   43 1
  38   21   22 1
  39   21   44 1
  40   21   45 1
  41   22   23 ar
  42   22   27 ar
  43   23   24 ar
  44   23   46 1
  45   24   25 ar
  46   24   28 1
  47   25   26 ar
  48   25   47 1
  49   26   27 ar
  50   26   48 1
  51   27   49 1

#	End of record

