#	Name: ASD02508161
#	Creating user name:	WinNT
#	Creation time:	15. 06. 2019 20:23

#	Modifying user name:	WinNT
#	Modification time:	15. 06. 2019 20:23

#	Program:	/corina/corina34_cracker 3.40 0067  02.08.2006

@<TRIPOS>MOLECULE
ASD02508161
  32   34    0    0    0
SMALL
NO_CHARGES


@<TRIPOS>ATOM
   1 C1            -0.0624     1.3980     0.2672 C.ar    
   2 C2             0.0346     0.0068     0.4632 C.ar    
   3 C3             1.0775     2.1137    -0.0220 C.ar    
   4 C4             2.3074     1.4337    -0.1142 C.ar    
   5 C5             2.3867     0.0771     0.0785 C.ar    
   6 C6             1.2403    -0.6426     0.3709 C.ar    
   7 S7            -1.5259     2.3683     0.3590 S.3     
   8 C8            -0.9115     3.9724     0.0142 C.2     
   9 S9             0.8163     3.8385    -0.2426 S.3     
  10 S10            3.9404    -0.7449    -0.0442 S.o2    
  11 N11            4.2814    -1.3741     1.4492 N.am    
  12 C12            4.4706    -0.5209     2.5406 C.ar    
  13 O13           -1.5672     4.9971    -0.0345 O.2     
  14 O14            3.7406    -1.8534    -0.9105 O.2     
  15 O15            4.9106     0.2649    -0.2853 O.2     
  16 C16            3.8589    -0.8001     3.7558 C.ar    
  17 C17            5.2752     0.6038     2.4129 C.ar    
  18 C18            5.4611     1.4450     3.4925 C.ar    
  19 C19            4.8463     1.1673     4.7017 C.ar    
  20 C20            4.0476     0.0438     4.8328 C.ar    
  21 F21            5.0302     1.9909     5.7567 F       
  22 C22            1.3158    -2.1325     0.5844 C.3     
  23 H23           -0.8564    -0.5597     0.6907 H       
  24 H24            3.2048     1.9901    -0.3412 H       
  25 H25            4.3499    -2.3345     1.5667 H       
  26 H26            3.2358    -1.6762     3.8584 H       
  27 H27            5.7555     0.8204     1.4701 H       
  28 H28            6.0867     2.3197     3.3936 H       
  29 H29            3.5690    -0.1709     5.7768 H       
  30 H30            1.5901    -2.3378     1.6191 H       
  31 H31            0.3452    -2.5799     0.3701 H       
  32 H32            2.0667    -2.5574    -0.0818 H       
@<TRIPOS>BOND
   1    1    2 ar
   2    1    3 ar
   3    1    7 1
   4    2    6 ar
   5    2   23 1
   6    3    4 ar
   7    3    9 1
   8    4    5 ar
   9    4   24 1
  10    5    6 ar
  11    5   10 1
  12    6   22 1
  13    7    8 1
  14    8    9 1
  15    8   13 2
  16   10   11 am
  17   10   14 2
  18   10   15 2
  19   11   12 1
  20   11   25 1
  21   12   16 ar
  22   12   17 ar
  23   16   20 ar
  24   16   26 1
  25   17   18 ar
  26   17   27 1
  27   18   19 ar
  28   18   28 1
  29   19   20 ar
  30   19   21 1
  31   20   29 1
  32   22   30 1
  33   22   31 1
  34   22   32 1

#	End of record

