#	Name: ASD05143016
#	Creating user name:	WinNT
#	Creation time:	15. 06. 2019 20:57

#	Modifying user name:	WinNT
#	Modification time:	15. 06. 2019 20:57

#	Program:	/corina/corina34_cracker 3.40 0067  02.08.2006

@<TRIPOS>MOLECULE
ASD05143016
 145  148    0    0    0
SMALL
NO_CHARGES


@<TRIPOS>ATOM
   1 C1            -1.9884     2.7179     4.9846 C.2     
   2 C2            -1.4722     1.6056     5.8605 C.3     
   3 N3            -1.1286     3.4533     4.2522 N.am    
   4 O4            -3.1782     2.9481     4.9348 O.2     
   5 C5            -1.6305     4.5347     3.4007 C.3     
   6 C6            -2.6002     3.9606     2.3659 C.3     
   7 C7            -2.3472     5.5519     4.2508 C.2     
   8 C8            -1.8439     3.0216     1.4240 C.3     
   9 C9            -2.8136     2.4476     0.3891 C.3     
  10 N10           -2.0894     1.5484    -0.5127 N.pl3   
  11 C11           -2.7582     0.9111    -1.5309 C.2     
  12 N12           -2.0785     0.0673    -2.3773 N.pl3   
  13 N13           -4.0365     1.1068    -1.6939 N.2     
  14 O14           -2.7510     5.2452     5.3524 O.2     
  15 N15           -2.5394     6.8026     3.7867 N.am    
  16 C16           -3.2361     7.7915     4.6130 C.3     
  17 C17           -2.2169     8.7570     5.2212 C.3     
  18 C18           -1.0485     7.9629     5.8084 C.3     
  19 C19           -0.0098     7.7334     4.7411 C.2     
  20 O20           -0.3344     7.3629     3.6328 O.2     
  21 N21            1.3045     7.9508     5.0448 N.am    
  22 C22            2.2604     7.6959     3.9431 C.3     
  23 C23            2.4135     8.9771     3.1209 C.3     
  24 C24            2.9354     8.6279     1.7257 C.3     
  25 C25            3.9216     9.7034     1.2654 C.3     
  26 N26            3.7524     9.9149    -0.1863 N.am    
  27 C27            5.3308     9.2511     1.5491 C.2     
  28 N28            5.8385     9.3672     2.7922 N.am    
  29 O29            6.0081     8.7826     0.6588 O.2     
  30 C30            2.9489    10.9475    -0.5608 C.2     
  31 O31            2.4172    11.6464     0.2757 O.2     
  32 C32            2.7285    11.2118    -2.0280 C.3     
  33 N33            1.5454    12.0902    -2.1761 N.am    
  34 C34            3.9596    11.9045    -2.6158 C.3     
  35 C35            0.4103    11.4731    -2.6203 C.2     
  36 O36            0.4101    10.2867    -2.8720 O.2     
  37 C37           -0.8417    12.2944    -2.7910 C.3     
  38 N38           -2.0152    11.4082    -2.6585 N.am    
  39 C39           -0.8942    13.3791    -1.7132 C.3     
  40 C40           -3.0292    11.8543    -1.8670 C.2     
  41 O41           -2.9456    12.9262    -1.3059 O.2     
  42 C42           -4.2571    10.9970    -1.6986 C.3     
  43 C43            3.7871    12.0566    -4.1052 C.2     
  44 C44            3.0872    13.1430    -4.7949 C.ar    
  45 C45            3.1870    12.8591    -6.1690 C.ar    
  46 N46            3.8966    11.6856    -6.2908 N.pl3   
  47 C47            4.2507    11.2253    -5.0518 C.2     
  48 C48            2.4115    14.2877    -4.3672 C.ar    
  49 C49            1.8499    15.1273    -5.2872 C.ar    
  50 C50            1.9452    14.8513    -6.6445 C.ar    
  51 C51            2.6079    13.7282    -7.0882 C.ar    
  52 N52           -4.7149    11.0947    -0.2938 N.am    
  53 C53           -3.9163     9.5421    -2.0274 C.3     
  54 C54           -5.1628     8.7005    -1.9323 C.ar    
  55 C55           -6.1602     8.8320    -2.8818 C.ar    
  56 C56           -7.3044     8.0592    -2.7944 C.ar    
  57 C57           -7.4504     7.1556    -1.7575 C.ar    
  58 C58           -6.4519     7.0248    -0.8083 C.ar    
  59 C59           -5.3067     7.7930    -0.8994 C.ar    
  60 C60           -4.2107     8.5621     3.7598 C.2     
  61 N61           -3.7314     9.3687     2.7734 N.am    
  62 O62           -5.4046     8.4648     3.9491 O.2     
  63 C63           -4.7334    10.0985     1.9711 C.3     
  64 C64           -4.8275    11.5450     2.4609 C.3     
  65 C65           -4.3057    10.0815     0.5263 C.2     
  66 C66           -5.3655    11.5645     3.8931 C.3     
  67 N67           -5.4558    12.9532     4.3634 N.3     
  68 O68           -3.6108     9.1841     0.0989 O.2     
  69 C69           -0.7635    12.7329    -0.3325 C.3     
  70 C70           -0.9422    13.8002     0.7490 C.3     
  71 N71           -0.8171    13.1815     2.0711 N.pl3   
  72 C72           -0.9418    13.9499     3.2043 C.2     
  73 N73           -0.8244    13.3692     4.4450 N.pl3   
  74 N74           -1.1713    15.2289     3.1024 N.2     
  75 Cl75          -8.8860     6.1859    -1.6467 Cl      
  76 Cl76          -5.9764     9.9670    -4.1825 Cl      
  77 H77           -0.7813     2.0146     6.5977 H       
  78 H78           -2.3080     1.1279     6.3716 H       
  79 H79           -0.9538     0.8698     5.2457 H       
  80 H80           -0.1774     3.2667     4.2890 H       
  81 H81           -0.7946     5.0124     2.8896 H       
  82 H82           -3.3889     3.4067     2.8750 H       
  83 H83           -3.0412     4.7746     1.7905 H       
  84 H84           -1.0552     3.5755     0.9148 H       
  85 H85           -1.4029     2.2077     1.9994 H       
  86 H86           -3.6023     1.8936     0.8983 H       
  87 H87           -3.2547     3.2615    -0.1863 H       
  88 H88           -1.1381     1.4028    -0.3915 H       
  89 H89           -1.1272    -0.0784    -2.2560 H       
  90 H90           -2.5503    -0.3824    -3.0957 H       
  91 H91           -4.5083     0.6571    -2.4123 H       
  92 H92           -2.2164     7.0479     2.9056 H       
  93 H93           -3.7758     7.2824     5.4115 H       
  94 H94           -1.8467     9.4293     4.4473 H       
  95 H95           -2.6936     9.3388     6.0101 H       
  96 H96           -0.6057     8.5234     6.6317 H       
  97 H97           -1.4102     7.0026     6.1758 H       
  98 H98            1.5914     8.2515     5.9212 H       
  99 H99            3.2273     7.4092     4.3568 H       
 100 H100           1.8806     6.8964     3.3070 H       
 101 H101           1.4456     9.4708     3.0338 H       
 102 H102           3.1186     9.6447     3.6162 H       
 103 H103           3.4400     7.6623     1.7579 H       
 104 H104           2.1001     8.5781     1.0273 H       
 105 H105           3.7208    10.6341     1.7960 H       
 106 H106           4.1911     9.3471    -0.8390 H       
 107 H107           5.2968     9.7420     3.5042 H       
 108 H108           6.7456     9.0761     2.9747 H       
 109 H109           2.5523    10.2698    -2.5472 H       
 110 H110           1.5744    13.0381    -1.9721 H       
 111 H111           4.0747    12.8884    -2.1610 H       
 112 H112           4.8462    11.3041    -2.4122 H       
 113 H113          -0.8431    12.7572    -3.7779 H       
 114 H114          -2.0613    10.5520    -3.1119 H       
 115 H115          -0.0746    14.0816    -1.8646 H       
 116 H116          -1.8441    13.9097    -1.7776 H       
 117 H117          -5.0439    11.3503    -2.3650 H       
 118 H118           4.1162    11.2517    -7.1301 H       
 119 H119           4.8131    10.3228    -4.8630 H       
 120 H120           2.3327    14.5084    -3.3129 H       
 121 H121           1.3274    16.0125    -4.9559 H       
 122 H122           1.4958    15.5243    -7.3596 H       
 123 H123           2.6768    13.5224    -8.1462 H       
 124 H124          -5.2667    11.8271     0.0223 H       
 125 H125          -3.5142     9.4828    -3.0388 H       
 126 H126          -3.1742     9.1738    -1.3191 H       
 127 H127          -8.0835     8.1619    -3.5352 H       
 128 H128          -6.5659     6.3195     0.0015 H       
 129 H129          -4.5276     7.6904    -0.1586 H       
 130 H130          -2.7803     9.4595     2.6063 H       
 131 H131          -5.7050     9.6148     2.0722 H       
 132 H132          -3.8379    12.0014     2.4383 H       
 133 H133          -5.5010    12.1051     1.8122 H       
 134 H134          -6.3550    11.1081     3.9158 H       
 135 H135          -4.6920    11.0043     4.5418 H       
 136 H136          -5.8088    12.9929     5.3078 H       
 137 H137          -4.5633    13.4182     4.2911 H       
 138 H138          -1.5295    11.9661    -0.2163 H       
 139 H139           0.2227    12.2790    -0.2357 H       
 140 H140          -0.1763    14.5670     0.6328 H       
 141 H141          -1.9284    14.2542     0.6522 H       
 142 H142          -0.6463    12.2296     2.1469 H       
 143 H143          -0.6536    12.4174     4.5208 H       
 144 H144          -0.9124    13.9114     5.2445 H       
 145 H145          -1.2593    15.7711     3.9019 H       
@<TRIPOS>BOND
   1    1    2 1
   2    1    3 am
   3    1    4 2
   4    2   77 1
   5    2   78 1
   6    2   79 1
   7    3    5 1
   8    3   80 1
   9    5    6 1
  10    5    7 1
  11    5   81 1
  12    6    8 1
  13    6   82 1
  14    6   83 1
  15    7   14 2
  16    7   15 am
  17    8    9 1
  18    8   84 1
  19    8   85 1
  20    9   10 1
  21    9   86 1
  22    9   87 1
  23   10   11 1
  24   10   88 1
  25   11   12 1
  26   11   13 2
  27   12   89 1
  28   12   90 1
  29   13   91 1
  30   15   16 1
  31   15   92 1
  32   16   17 1
  33   16   60 1
  34   16   93 1
  35   17   18 1
  36   17   94 1
  37   17   95 1
  38   18   19 1
  39   18   96 1
  40   18   97 1
  41   19   20 2
  42   19   21 am
  43   21   22 1
  44   21   98 1
  45   22   23 1
  46   22   99 1
  47   22  100 1
  48   23   24 1
  49   23  101 1
  50   23  102 1
  51   24   25 1
  52   24  103 1
  53   24  104 1
  54   25   26 1
  55   25   27 1
  56   25  105 1
  57   26   30 am
  58   26  106 1
  59   27   28 am
  60   27   29 2
  61   28  107 1
  62   28  108 1
  63   30   31 2
  64   30   32 1
  65   32   33 1
  66   32   34 1
  67   32  109 1
  68   33   35 am
  69   33  110 1
  70   34   43 1
  71   34  111 1
  72   34  112 1
  73   35   36 2
  74   35   37 1
  75   37   38 1
  76   37   39 1
  77   37  113 1
  78   38   40 am
  79   38  114 1
  80   39   69 1
  81   39  115 1
  82   39  116 1
  83   40   41 2
  84   40   42 1
  85   42   52 1
  86   42   53 1
  87   42  117 1
  88   43   44 1
  89   43   47 2
  90   44   45 ar
  91   44   48 ar
  92   45   46 1
  93   45   51 ar
  94   46   47 1
  95   46  118 1
  96   47  119 1
  97   48   49 ar
  98   48  120 1
  99   49   50 ar
 100   49  121 1
 101   50   51 ar
 102   50  122 1
 103   51  123 1
 104   52   65 am
 105   52  124 1
 106   53   54 1
 107   53  125 1
 108   53  126 1
 109   54   55 ar
 110   54   59 ar
 111   55   56 ar
 112   55   76 1
 113   56   57 ar
 114   56  127 1
 115   57   58 ar
 116   57   75 1
 117   58   59 ar
 118   58  128 1
 119   59  129 1
 120   60   61 am
 121   60   62 2
 122   61   63 1
 123   61  130 1
 124   63   64 1
 125   63   65 1
 126   63  131 1
 127   64   66 1
 128   64  132 1
 129   64  133 1
 130   65   68 2
 131   66   67 1
 132   66  134 1
 133   66  135 1
 134   67  136 1
 135   67  137 1
 136   69   70 1
 137   69  138 1
 138   69  139 1
 139   70   71 1
 140   70  140 1
 141   70  141 1
 142   71   72 1
 143   71  142 1
 144   72   73 1
 145   72   74 2
 146   73  143 1
 147   73  144 1
 148   74  145 1

#	End of record

