#	Name: ASD05430381
#	Creating user name:	WinNT
#	Creation time:	15. 06. 2019 21:00

#	Modifying user name:	WinNT
#	Modification time:	15. 06. 2019 21:00

#	Program:	/corina/corina34_cracker 3.40 0067  02.08.2006

@<TRIPOS>MOLECULE
ASD05430381
  64   68    0    0    0
SMALL
NO_CHARGES


@<TRIPOS>ATOM
   1 C1            -0.0880     1.1771    -0.3890 C.ar    
   2 C2            -0.0158    -0.0181     0.3259 C.ar    
   3 C3            -1.1484    -0.5294     0.9465 C.ar    
   4 C4            -2.3485     0.1417     0.8587 C.ar    
   5 C5            -2.4283     1.3412     0.1439 C.ar    
   6 C6            -1.2871     1.8587    -0.4764 C.ar    
   7 C7            -4.8619     1.3704    -0.0467 C.2     
   8 C8            -3.7098     2.0594     0.0485 C.2     
   9 N9            -7.1205     1.6271    -0.9173 N.pl3   
  10 C10           -6.1639     2.0588     0.0005 C.2     
  11 O11            1.0225     1.6748    -0.9951 O.3     
  12 C12            0.8759     2.9032    -1.7103 C.3     
  13 C13            1.7883    -1.1746     1.5649 C.2     
  14 N14            1.2022    -0.7051     0.4180 N.pl3   
  15 C15            2.9406    -1.7680     1.1993 C.2     
  16 N16            3.0597    -1.6666    -0.1327 N.2     
  17 C17            2.0247    -1.0319    -0.6124 C.2     
  18 C18            3.9261    -2.4310     2.1268 C.3     
  19 C19           -6.8414     0.4099    -1.6785 C.3     
  20 C20           -6.1962    -0.6195    -0.7596 C.3     
  21 C21           -4.8589    -0.1312    -0.2114 C.3     
  22 C22           -8.3565     2.3895    -1.0734 C.3     
  23 C23           -8.7771     2.9145     0.3039 C.3     
  24 O24           -7.6961     3.6135     0.9125 O.3     
  25 N25           -6.4303     2.9963     0.8476 N.2     
  26 C26           -8.1239     3.5478    -2.0089 C.ar    
  27 C27           -9.0902     3.8920    -2.9357 C.ar    
  28 C28           -7.6971     5.6737    -3.7254 C.ar    
  29 C29           -6.7324     5.3317    -2.7929 C.ar    
  30 C30           -6.9467     4.2690    -1.9359 C.ar    
  31 F31           -7.4887     6.7124    -4.5638 F       
  32 C32           -8.8779     4.9540    -3.7942 C.ar    
  33 C33           -9.9678     3.8620     0.1437 C.3     
  34 O34          -11.0592     3.1587    -0.4530 O.3     
  35 C35          -10.3897     4.3876     1.5173 C.3     
  36 H36           -1.0882    -1.4556     1.4988 H       
  37 H37           -3.2277    -0.2586     1.3417 H       
  38 H38           -1.3443     2.7848    -1.0291 H       
  39 H39           -3.7253     3.1393     0.0550 H       
  40 H40            1.8344     3.1876    -2.1443 H       
  41 H41            0.1408     2.7755    -2.5049 H       
  42 H42            0.5405     3.6835    -1.0271 H       
  43 H43            1.4023    -1.0821     2.5693 H       
  44 H44            1.8513    -0.8051    -1.6539 H       
  45 H45            3.6682    -3.4842     2.2384 H       
  46 H46            4.9303    -2.3450     1.7116 H       
  47 H47            3.8928    -1.9436     3.1011 H       
  48 H48           -7.7728     0.0085    -2.0780 H       
  49 H49           -6.1617     0.6408    -2.4986 H       
  50 H50           -6.8689    -0.8231     0.0735 H       
  51 H51           -6.0348    -1.5419    -1.3175 H       
  52 H52           -4.0637    -0.4147    -0.9008 H       
  53 H53           -4.6764    -0.5977     0.7567 H       
  54 H54           -9.1379     1.7440    -1.4746 H       
  55 H55           -9.0675     2.0762     0.9371 H       
  56 H56          -10.0112     3.3304    -2.9892 H       
  57 H57           -5.8127     5.8949    -2.7357 H       
  58 H58           -6.1944     4.0020    -1.2084 H       
  59 H59           -9.6327     5.2222    -4.5186 H       
  60 H60           -9.6829     4.6990    -0.4938 H       
  61 H61          -11.8503     3.6990    -0.5849 H       
  62 H62          -10.6746     3.5506     2.1548 H       
  63 H63           -9.5571     4.9241     1.9724 H       
  64 H64          -11.2379     5.0626     1.4032 H       
@<TRIPOS>BOND
   1    1    2 ar
   2    1   11 1
   3    1    6 ar
   4    2    3 ar
   5    2   14 1
   6    3    4 ar
   7    3   36 1
   8    4    5 ar
   9    4   37 1
  10    5    6 ar
  11    5    8 1
  12    6   38 1
  13    7    8 2
  14    7   21 1
  15    7   10 1
  16    8   39 1
  17    9   10 1
  18    9   22 1
  19    9   19 1
  20   10   25 2
  21   11   12 1
  22   12   40 1
  23   12   41 1
  24   12   42 1
  25   13   14 1
  26   13   15 2
  27   13   43 1
  28   14   17 1
  29   15   16 1
  30   15   18 1
  31   16   17 2
  32   17   44 1
  33   18   45 1
  34   18   46 1
  35   18   47 1
  36   19   20 1
  37   19   48 1
  38   19   49 1
  39   20   21 1
  40   20   50 1
  41   20   51 1
  42   21   52 1
  43   21   53 1
  44   22   23 1
  45   22   26 1
  46   22   54 1
  47   23   24 1
  48   23   33 1
  49   23   55 1
  50   24   25 1
  51   26   27 ar
  52   26   30 ar
  53   27   32 ar
  54   27   56 1
  55   28   29 ar
  56   28   31 1
  57   28   32 ar
  58   29   30 ar
  59   29   57 1
  60   30   58 1
  61   32   59 1
  62   33   34 1
  63   33   35 1
  64   33   60 1
  65   34   61 1
  66   35   62 1
  67   35   63 1
  68   35   64 1

#	End of record

