#	Name: ASD01884537
#	Creating user name:	WinNT
#	Creation time:	15. 06. 2019 19:48

#	Modifying user name:	WinNT
#	Modification time:	15. 06. 2019 19:48

#	Program:	/corina/corina34_cracker 3.40 0067  02.08.2006

@<TRIPOS>MOLECULE
ASD01884537
  66   68    0    0    0
SMALL
NO_CHARGES


@<TRIPOS>ATOM
   1 C1            -0.0168     1.3884     0.0097 C.2     
   2 C2             0.0021    -0.0041     0.0020 C.2     
   3 C3            -1.2095    -0.6965     0.0104 C.2     
   4 C4            -2.3831    -0.0157     0.0252 C.2     
   5 N5            -2.4093     1.3392     0.0327 N.am    
   6 C6            -1.2693     2.0558     0.0312 C.2     
   7 O7            -1.3129     3.2741     0.0383 O.2     
   8 C8            -3.6983     2.0352     0.0483 C.3     
   9 C9            -4.1273     2.2662     1.4744 C.ar    
  10 C10           -3.7549     3.4259     2.1284 C.ar    
  11 C11           -4.1480     3.6390     3.4360 C.ar    
  12 C12           -4.9152     2.6906     4.0911 C.ar    
  13 C13           -5.2876     1.5296     3.4350 C.ar    
  14 C14           -4.8977     1.3210     2.1257 C.ar    
  15 F15           -5.2998     2.8977     5.3695 F       
  16 C16            1.2059     2.1337     0.0020 C.1     
  17 N17            2.1759     2.7249    -0.0041 N.1     
  18 C18            1.3105    -0.7515    -0.0155 C.3     
  19 N19            1.6901    -1.1066     1.3585 N.3     
  20 C20            2.8290    -2.0352     1.3670 C.3     
  21 C21            3.2431    -2.3172     2.8131 C.3     
  22 N22            2.1012    -2.8822     3.5456 N.3     
  23 C23            0.9623    -1.9536     3.5371 C.3     
  24 C24            0.5482    -1.6716     2.0910 C.3     
  25 N25            2.4769    -3.2337     4.9056 N.3     
  26 C26            1.6700    -2.4913     5.8832 C.3     
  27 C27            2.0868    -2.8809     7.2780 C.ar    
  28 C28            3.0904    -2.1802     7.9202 C.ar    
  29 C29            3.4742    -2.5368     9.1998 C.ar    
  30 C30            2.8548    -3.5943     9.8379 C.ar    
  31 C31            1.8490    -4.2968     9.1957 C.ar    
  32 C32            1.4616    -3.9352     7.9167 C.ar    
  33 F33            1.2427    -5.3310     9.8187 F       
  34 H34           -1.2130    -1.7765     0.0046 H       
  35 H35           -3.3137    -0.5638     0.0308 H       
  36 H36           -3.5999     2.9937    -0.4613 H       
  37 H37           -4.4456     1.4275    -0.4619 H       
  38 H38           -3.1562     4.1653     1.6174 H       
  39 H39           -3.8567     4.5449     3.9469 H       
  40 H40           -5.8860     0.7891     3.9450 H       
  41 H41           -5.1880     0.4154     1.6137 H       
  42 H42            1.2023    -1.6595    -0.6087 H       
  43 H43            2.0835    -0.1207    -0.4544 H       
  44 H44            2.5411    -2.9683     0.8826 H       
  45 H45            3.6659    -1.5892     0.8295 H       
  46 H46            4.0692    -3.0283     2.8228 H       
  47 H47            3.5569    -1.3883     3.2893 H       
  48 H48            0.1254    -2.3996     4.0746 H       
  49 H49            1.2502    -1.0205     4.0215 H       
  50 H50           -0.2779    -0.9605     2.0813 H       
  51 H51            0.2344    -2.6005     1.6148 H       
  52 H52            2.4018    -4.2286     5.0558 H       
  53 H53            1.8238    -1.4212     5.7435 H       
  54 H54            0.6159    -2.7286     5.7393 H       
  55 H55            3.5753    -1.3537     7.4220 H       
  56 H56            4.2587    -1.9888     9.7005 H       
  57 H57            3.1553    -3.8732    10.8371 H       
  58 H58            0.6773    -4.4823     7.4148 H       
  59 C59           10.5622    10.9437    16.9705 C.3     
  60 F60           10.5811     9.5449    16.9628 F       
  61 F61           11.8747    11.4279    16.9606 F       
  62 F62            9.8855    11.4071    15.8371 F       
  63 C63            9.8568    11.4297    18.2104 C.2     
  64 O64            9.4159    10.6341    19.0057 O.2     
  65 O65            9.7183    12.7464    18.4312 O.3     
  66 H66            9.2587    13.0100    19.2402 H       
@<TRIPOS>BOND
   1    1    2 2
   2    1   16 1
   3    1    6 1
   4    2    3 1
   5    2   18 1
   6    3    4 2
   7    3   34 1
   8    4    5 1
   9    4   35 1
  10    5    8 1
  11    5    6 am
  12    6    7 2
  13    8    9 1
  14    8   36 1
  15    8   37 1
  16    9   10 ar
  17    9   14 ar
  18   10   11 ar
  19   10   38 1
  20   11   12 ar
  21   11   39 1
  22   12   13 ar
  23   12   15 1
  24   13   14 ar
  25   13   40 1
  26   14   41 1
  27   16   17 3
  28   18   19 1
  29   18   42 1
  30   18   43 1
  31   19   20 1
  32   19   24 1
  33   20   21 1
  34   20   44 1
  35   20   45 1
  36   21   22 1
  37   21   46 1
  38   21   47 1
  39   22   23 1
  40   22   25 1
  41   23   24 1
  42   23   48 1
  43   23   49 1
  44   24   50 1
  45   24   51 1
  46   25   26 1
  47   25   52 1
  48   26   27 1
  49   26   53 1
  50   26   54 1
  51   27   28 ar
  52   27   32 ar
  53   28   29 ar
  54   28   55 1
  55   29   30 ar
  56   29   56 1
  57   30   31 ar
  58   30   57 1
  59   31   32 ar
  60   31   33 1
  61   32   58 1
  62   59   60 1
  63   59   61 1
  64   59   62 1
  65   59   63 1
  66   63   64 2
  67   63   65 1
  68   65   66 1

#	End of record

