#	Name: ASD01917554
#	Creating user name:	WinNT
#	Creation time:	15. 06. 2019 20:09

#	Modifying user name:	WinNT
#	Modification time:	15. 06. 2019 20:09

#	Program:	/corina/corina34_cracker 3.40 0067  02.08.2006

@<TRIPOS>MOLECULE
ASD01917554
  31   32    0    0    0
SMALL
NO_CHARGES


@<TRIPOS>ATOM
   1 C1            -0.0173     1.4278     0.0099 C.ar    
   2 C2             0.0021    -0.0041     0.0020 C.1     
   3 C3             0.0180    -1.1779    -0.0044 C.1     
   4 C4             0.0374    -2.6098    -0.0123 C.ar    
   5 C5            -1.1627    -3.3263    -0.0047 C.ar    
   6 C6            -1.1445    -4.7112    -0.0118 C.ar    
   7 C7             0.0623    -5.3928    -0.0265 C.ar    
   8 C8             1.2664    -4.6857    -0.0346 C.ar    
   9 C9             1.2539    -3.2919    -0.0334 C.ar    
  10 C10            1.1858     2.1377     0.0022 C.ar    
  11 C11            1.1496     3.5206     0.0100 C.ar    
  12 C12           -0.0868     4.1516     0.0252 C.ar    
  13 C13           -1.2400     3.3877     0.0321 C.ar    
  14 N14           -1.1806     2.0722     0.0189 N.ar    
  15 C15           -2.5833     4.0705     0.0486 C.3     
  16 C16            2.5123    -5.3915    -0.0497 C.1     
  17 N17            3.5006    -5.9514    -0.0617 N.1     
  18 O18           -2.3138    -5.4041    -0.0039 O.3     
  19 C19           -2.2230    -6.8302    -0.0119 C.3     
  20 H20           -2.1053    -2.7994     0.0071 H       
  21 H21            0.0713    -6.4728    -0.0313 H       
  22 H22            2.1833    -2.7419    -0.0441 H       
  23 H23            2.1306     1.6146    -0.0093 H       
  24 H24            2.0631     4.0966     0.0047 H       
  25 H25           -0.1478     5.2299     0.0319 H       
  26 H26           -2.9170     4.2406    -0.9750 H       
  27 H27           -3.3056     3.4390     0.5660 H       
  28 H28           -2.4990     5.0257     0.5668 H       
  29 H29           -1.6957    -7.1556    -0.9087 H       
  30 H30           -1.6785    -7.1645     0.8711 H       
  31 H31           -3.2254    -7.2581    -0.0043 H       
@<TRIPOS>BOND
   1    1    2 1
   2    1   10 ar
   3    1   14 ar
   4    2    3 3
   5    3    4 1
   6    4    5 ar
   7    4    9 ar
   8    5    6 ar
   9    5   20 1
  10    6    7 ar
  11    6   18 1
  12    7    8 ar
  13    7   21 1
  14    8    9 ar
  15    8   16 1
  16    9   22 1
  17   10   11 ar
  18   10   23 1
  19   11   12 ar
  20   11   24 1
  21   12   13 ar
  22   12   25 1
  23   13   14 ar
  24   13   15 1
  25   15   26 1
  26   15   27 1
  27   15   28 1
  28   16   17 3
  29   18   19 1
  30   19   29 1
  31   19   30 1
  32   19   31 1

#	End of record

