#	Name: ASD01883495
#	Creating user name:	WinNT
#	Creation time:	15. 06. 2019 19:46

#	Modifying user name:	WinNT
#	Modification time:	15. 06. 2019 19:46

#	Program:	/corina/corina34_cracker 3.40 0067  02.08.2006

@<TRIPOS>MOLECULE
ASD01883495
  58   60    0    0    0
SMALL
NO_CHARGES


@<TRIPOS>ATOM
   1 N1             0.2024     0.7646     0.4212 N.am    
   2 C2            -0.8578     1.5927     0.4637 C.2     
   3 C3            -2.1683     1.0662     0.3775 C.2     
   4 C4            -2.3300    -0.3236     0.2484 C.2     
   5 C5            -1.1826    -1.1373     0.2098 C.2     
   6 C6             0.0446    -0.5784     0.2912 C.2     
   7 O7            -0.6891     2.7951     0.5766 O.2     
   8 C8            -3.3075     1.9327     0.4215 C.1     
   9 N9            -4.2113     2.6201     0.4564 N.1     
  10 C10            1.5537     1.3232     0.5110 C.3     
  11 C11            1.9817     1.3897     1.9784 C.3     
  12 C12            3.3930     1.9731     2.0721 C.3     
  13 C13            3.7727     2.1557     3.5430 C.3     
  14 C14            4.3848     1.0187     1.4041 C.3     
  15 N15           -3.5870    -0.8786     0.1617 N.pl3   
  16 C16           -4.8566    -0.1499     0.2977 C.3     
  17 C17           -5.9949    -1.1820     0.1541 C.3     
  18 C18           -5.2967    -2.5211     0.5099 C.3     
  19 C19           -3.8827    -2.3009    -0.0891 C.3     
  20 N20           -7.0802    -0.8940     1.1014 N.3     
  21 C21           -7.6826     0.4178     0.8288 C.3     
  22 C22           -8.6137     0.7867     1.9548 C.ar    
  23 C23           -8.1358     1.4902     3.0438 C.ar    
  24 C24           -8.9918     1.8291     4.0784 C.ar    
  25 C25          -10.3254     1.4624     4.0202 C.ar    
  26 C26          -10.8012     0.7587     2.9298 C.ar    
  27 C27           -9.9472     0.4259     1.8952 C.ar    
  28 F28           -8.5255     2.5165     5.1438 F       
  29 C29           -8.0958    -1.9550     1.0768 C.3     
  30 H30           -1.2829    -2.2082     0.1114 H       
  31 H31            0.9179    -1.2131     0.2605 H       
  32 H32            2.2467     0.6884    -0.0412 H       
  33 H33            1.5613     2.3263     0.0845 H       
  34 H34            1.2887     2.0245     2.5306 H       
  35 H35            1.9741     0.3866     2.4048 H       
  36 H36            3.4213     2.9386     1.5670 H       
  37 H37            3.7443     1.1903     4.0481 H       
  38 H38            4.7781     2.5714     3.6097 H       
  39 H39            3.0661     2.8357     4.0189 H       
  40 H40            4.3564     0.0532     1.9092 H       
  41 H41            4.1143     0.8886     0.3562 H       
  42 H42            5.3902     1.4343     1.4709 H       
  43 H43           -4.9083     0.3252     1.2773 H       
  44 H44           -4.9378     0.6030    -0.4864 H       
  45 H45           -6.3700    -1.2026    -0.8691 H       
  46 H46           -5.2496    -2.6624     1.5896 H       
  47 H47           -5.7963    -3.3620     0.0288 H       
  48 H48           -3.8871    -2.5100    -1.1588 H       
  49 H49           -3.1532    -2.9319     0.4186 H       
  50 H50           -6.8966     1.1685     0.7466 H       
  51 H51           -8.2420     0.3736    -0.1056 H       
  52 H52           -7.0951     1.7754     3.0883 H       
  53 H53          -10.9938     1.7258     4.8266 H       
  54 H54          -11.8416     0.4725     2.8842 H       
  55 H55          -10.3199    -0.1236     1.0434 H       
  56 H56           -7.6182    -2.9192     1.2509 H       
  57 H57           -8.8343    -1.7692     1.8567 H       
  58 H58           -8.5885    -1.9639     0.1045 H       
@<TRIPOS>BOND
   1    1    2 am
   2    1   10 1
   3    1    6 1
   4    2    3 1
   5    2    7 2
   6    3    4 2
   7    3    8 1
   8    4    5 1
   9    4   15 1
  10    5    6 2
  11    5   30 1
  12    6   31 1
  13    8    9 3
  14   10   11 1
  15   10   32 1
  16   10   33 1
  17   11   12 1
  18   11   34 1
  19   11   35 1
  20   12   13 1
  21   12   14 1
  22   12   36 1
  23   13   37 1
  24   13   38 1
  25   13   39 1
  26   14   40 1
  27   14   41 1
  28   14   42 1
  29   15   16 1
  30   15   19 1
  31   16   17 1
  32   16   43 1
  33   16   44 1
  34   17   18 1
  35   17   20 1
  36   17   45 1
  37   18   19 1
  38   18   46 1
  39   18   47 1
  40   19   48 1
  41   19   49 1
  42   20   21 1
  43   20   29 1
  44   21   22 1
  45   21   50 1
  46   21   51 1
  47   22   23 ar
  48   22   27 ar
  49   23   24 ar
  50   23   52 1
  51   24   25 ar
  52   24   28 1
  53   25   26 ar
  54   25   53 1
  55   26   27 ar
  56   26   54 1
  57   27   55 1
  58   29   56 1
  59   29   57 1
  60   29   58 1

#	End of record

