#	Name: ASD03330142
#	Creating user name:	WinNT
#	Creation time:	15. 06. 2019 20:36

#	Modifying user name:	WinNT
#	Modification time:	15. 06. 2019 20:36

#	Program:	/corina/corina34_cracker 3.40 0067  02.08.2006

@<TRIPOS>MOLECULE
ASD03330142
  31   32    0    0    0
SMALL
NO_CHARGES


@<TRIPOS>ATOM
   1 C1            -0.0184     1.5028     0.0103 C.2     
   2 C2             0.0021    -0.0041     0.0020 C.3     
   3 C3            -1.4117    -0.5257     0.0127 C.ar    
   4 C4            -2.0706    -0.7581    -1.1804 C.ar    
   5 C5            -3.3667    -1.2363    -1.1733 C.ar    
   6 C6            -4.0071    -1.4832     0.0324 C.ar    
   7 C7            -3.3438    -1.2492     1.2281 C.ar    
   8 C8            -2.0458    -0.7764     1.2156 C.ar    
   9 O9            -5.2822    -1.9532     0.0420 O.3     
  10 C10           -5.8787    -2.1846     1.3198 C.3     
  11 C11            1.2439     2.2546     0.0023 C.ar    
  12 C12            1.2287     3.6556     0.0100 C.ar    
  13 C13            2.4178     4.3542     0.0028 C.ar    
  14 C14            3.6253     3.6728    -0.0119 C.ar    
  15 C15            3.6467     2.2855    -0.0200 C.ar    
  16 C16            2.4672     1.5747    -0.0072 C.ar    
  17 F17            4.7866     4.3631    -0.0188 F       
  18 Cl18          -0.2826     4.5096     0.0278 Cl      
  19 O19           -1.0768     2.0949     0.0185 O.2     
  20 H20            0.5123    -0.3556    -0.8948 H       
  21 H21            0.5293    -0.3651     0.8851 H       
  22 H22           -1.5718    -0.5654    -2.1187 H       
  23 H23           -3.8811    -1.4174    -2.1055 H       
  24 H24           -3.8402    -1.4406     2.1680 H       
  25 H25           -1.5273    -0.5985     2.1461 H       
  26 H26           -5.2908    -2.9215     1.8671 H       
  27 H27           -5.9062    -1.2514     1.8823 H       
  28 H28           -6.8939    -2.5575     1.1847 H       
  29 H29            2.4084     5.4341     0.0084 H       
  30 H30            4.5911     1.7616    -0.0318 H       
  31 H31            2.4861     0.4949    -0.0090 H       
@<TRIPOS>BOND
   1    1    2 1
   2    1   11 1
   3    1   19 2
   4    2    3 1
   5    2   20 1
   6    2   21 1
   7    3    4 ar
   8    3    8 ar
   9    4    5 ar
  10    4   22 1
  11    5    6 ar
  12    5   23 1
  13    6    7 ar
  14    6    9 1
  15    7    8 ar
  16    7   24 1
  17    8   25 1
  18    9   10 1
  19   10   26 1
  20   10   27 1
  21   10   28 1
  22   11   12 ar
  23   11   16 ar
  24   12   13 ar
  25   12   18 1
  26   13   14 ar
  27   13   29 1
  28   14   15 ar
  29   14   17 1
  30   15   16 ar
  31   15   30 1
  32   16   31 1

#	End of record

