#	Name: ASD03091202
#	Creating user name:	WinNT
#	Creation time:	15. 06. 2019 20:30

#	Modifying user name:	WinNT
#	Modification time:	15. 06. 2019 20:30

#	Program:	/corina/corina34_cracker 3.40 0067  02.08.2006

@<TRIPOS>MOLECULE
ASD03091202
  67   71    0    0    0
SMALL
NO_CHARGES


@<TRIPOS>ATOM
   1 C1            -0.0219     1.4984     0.0286 C.2     
   2 C2             0.0007    -0.0082     0.0024 C.3     
   3 O3             1.0192     2.1205     0.0334 O.2     
   4 N4            -1.1991     2.1546     0.0410 N.am    
   5 C5            -1.2211     3.6192     0.0665 C.3     
   6 C6            -1.1042     4.1559    -1.3615 C.3     
   7 C7            -2.5354     4.0988     0.6857 C.3     
   8 N8             3.3185    -1.0109     1.2225 N.2     
   9 C9             2.0787    -0.5999     1.1623 C.2     
  10 N10            1.3890    -0.4756    -0.0136 N.am    
  11 C11            1.9821    -0.7824    -1.1909 C.2     
  12 C12            3.3767    -1.2469    -1.1473 C.ar    
  13 C13            4.0735    -1.5866    -2.3045 C.ar    
  14 C14            5.3855    -2.0183    -2.2050 C.ar    
  15 C15            6.0051    -2.1131    -0.9587 C.ar    
  16 C16            5.3348    -1.7841     0.1841 C.ar    
  17 C17            4.0092    -1.3443     0.1132 C.ar    
  18 O18            1.3837    -0.6781    -2.2458 O.2     
  19 N19            6.0931    -2.3615    -3.3602 N.pl3   
  20 C20            9.3158    -4.0394    -4.4333 C.3     
  21 C21            7.8196    -3.6894    -4.4735 C.3     
  22 C22            7.4814    -2.8187    -3.2601 C.3     
  23 C23            8.4153    -1.6059    -3.2176 C.3     
  24 C24            9.8711    -2.0971    -3.2625 C.3     
  25 C25           10.0173    -3.2378    -2.2292 C.3     
  26 C26            9.6504    -4.5213    -3.0029 C.3     
  27 N27           10.0704    -2.7659    -4.5758 N.3     
  28 C28           11.4951    -3.0231    -4.8248 C.3     
  29 C29            1.3895    -0.2532     2.4231 C.ar    
  30 C30            0.1761    -0.8616     2.7489 C.ar    
  31 C31           -0.4620    -0.5335     3.9283 C.ar    
  32 C32            0.0994     0.3972     4.7866 C.ar    
  33 C33            1.3013     1.0034     4.4686 C.ar    
  34 C34            1.9521     0.6795     3.2958 C.ar    
  35 Cl35          -1.9711    -1.2885     4.3360 Cl      
  36 H36           -0.5026    -0.3946     0.8887 H       
  37 H37           -0.5127    -0.3638    -0.8910 H       
  38 H38           -2.0318     1.6571     0.0331 H       
  39 H39           -0.3843     3.9848     0.6616 H       
  40 H40           -1.9410     3.7903    -1.9567 H       
  41 H41           -1.1206     5.2456    -1.3426 H       
  42 H42           -0.1679     3.8142    -1.8026 H       
  43 H43           -2.6186     3.7165     1.7030 H       
  44 H44           -2.5517     5.1885     0.7046 H       
  45 H45           -3.3722     3.7332     0.0905 H       
  46 H46            3.5950    -1.5145    -3.2701 H       
  47 H47            7.0287    -2.4518    -0.8971 H       
  48 H48            5.8276    -1.8633     1.1418 H       
  49 H49            5.6651    -2.2970    -4.2282 H       
  50 H50            9.5856    -4.7761    -5.1901 H       
  51 H51            7.5973    -3.1416    -5.3893 H       
  52 H52            7.2295    -4.6053    -4.4416 H       
  53 H53            7.6057    -3.4032    -2.3485 H       
  54 H54            8.2198    -0.9643    -4.0769 H       
  55 H55            8.2467    -1.0473    -2.2969 H       
  56 H56           10.5824    -1.2897    -3.0885 H       
  57 H57           11.0443    -3.2931    -1.8680 H       
  58 H58            9.3294    -3.0866    -1.3973 H       
  59 H59            8.7821    -5.0012    -2.5514 H       
  60 H60           10.4970    -5.2077    -3.0221 H       
  61 H61           11.6051    -3.5991    -5.7435 H       
  62 H62           12.0234    -2.0749    -4.9249 H       
  63 H63           11.9139    -3.5860    -3.9906 H       
  64 H64           -0.2626    -1.5869     2.0797 H       
  65 H65           -0.4035     0.6510     5.7080 H       
  66 H66            1.7337     1.7286     5.1420 H       
  67 H67            2.8929     1.1503     3.0513 H       
@<TRIPOS>BOND
   1    1    2 1
   2    1    3 2
   3    1    4 am
   4    2   10 1
   5    2   36 1
   6    2   37 1
   7    4    5 1
   8    4   38 1
   9    5    6 1
  10    5    7 1
  11    5   39 1
  12    6   40 1
  13    6   41 1
  14    6   42 1
  15    7   43 1
  16    7   44 1
  17    7   45 1
  18    8    9 2
  19    8   17 1
  20    9   10 1
  21    9   29 1
  22   10   11 am
  23   11   12 1
  24   11   18 2
  25   12   13 ar
  26   12   17 ar
  27   13   14 ar
  28   13   46 1
  29   14   15 ar
  30   14   19 1
  31   15   16 ar
  32   15   47 1
  33   16   17 ar
  34   16   48 1
  35   19   22 1
  36   19   49 1
  37   20   21 1
  38   20   26 1
  39   20   27 1
  40   20   50 1
  41   21   22 1
  42   21   51 1
  43   21   52 1
  44   22   23 1
  45   22   53 1
  46   23   24 1
  47   23   54 1
  48   23   55 1
  49   24   25 1
  50   24   27 1
  51   24   56 1
  52   25   26 1
  53   25   57 1
  54   25   58 1
  55   26   59 1
  56   26   60 1
  57   27   28 1
  58   28   61 1
  59   28   62 1
  60   28   63 1
  61   29   30 ar
  62   29   34 ar
  63   30   31 ar
  64   30   64 1
  65   31   32 ar
  66   31   35 1
  67   32   33 ar
  68   32   65 1
  69   33   34 ar
  70   33   66 1
  71   34   67 1

#	End of record

