#	Name: ASD02501052
#	Creating user name:	WinNT
#	Creation time:	15. 06. 2019 20:23

#	Modifying user name:	WinNT
#	Modification time:	15. 06. 2019 20:23

#	Program:	/corina/corina34_cracker 3.40 0067  02.08.2006

@<TRIPOS>MOLECULE
ASD02501052
  38   41    0    0    0
SMALL
NO_CHARGES


@<TRIPOS>ATOM
   1 C1            -0.0160     1.3257     0.0093 C.2     
   2 C2             2.6144     6.4644     0.0090 C.3     
   3 C3             4.9103     3.6112    -0.0283 C.2     
   4 C4             4.6515     4.9853    -0.0189 C.2     
   5 C5             5.7461     5.8767    -0.0252 C.2     
   6 N6             6.9999     5.3814    -0.0399 N.am    
   7 N7             7.2316     4.0031    -0.0491 N.2     
   8 C8             6.2468     3.1498    -0.0386 C.2     
   9 C9             3.6091     2.9415    -0.0184 C.2     
  10 C10            2.6435     3.9267    -0.0038 C.2     
  11 N11            3.2899     5.1645    -0.0042 N.pl3   
  12 S12            2.8477     1.3553    -0.0185 S.3     
  13 C13            1.2476     2.0784     0.0013 C.2     
  14 C14            1.3443     3.4187     0.0076 C.2     
  15 C15            8.1385     6.3032    -0.0470 C.3     
  16 C16            8.5430     6.6128     1.3713 C.ar    
  17 C17            9.3199     5.7137     2.0817 C.ar    
  18 C18            9.6908     5.9994     3.3850 C.ar    
  19 C19            9.2853     7.1813     3.9748 C.ar    
  20 C20            8.5095     8.0786     3.2643 C.ar    
  21 C21            8.1434     7.7970     1.9615 C.ar    
  22 O22            5.5594     7.0831    -0.0178 O.2     
  23 F23            9.7154     4.5581     1.5042 F       
  24 C24            0.0021    -0.0041     0.0020 C.2     
  25 H25           -0.9584     1.8529     0.0257 H       
  26 H26            2.4568     6.7815     1.0399 H       
  27 H27            3.2315     7.1999    -0.5071 H       
  28 H28            1.6521     6.3790    -0.4959 H       
  29 H29            6.4515     2.0894    -0.0460 H       
  30 H30            0.4750     4.0594     0.0198 H       
  31 H31            8.9757     5.8425    -0.5713 H       
  32 H32            7.8558     7.2259    -0.5538 H       
  33 H33           10.2965     5.2986     3.9403 H       
  34 H34            9.5742     7.4042     4.9913 H       
  35 H35            8.1927     9.0020     3.7262 H       
  36 H36            7.5374     8.4986     1.4074 H       
  37 H37           -0.9258    -0.5567     0.0079 H       
  38 H38            0.9446    -0.5313    -0.0098 H       
@<TRIPOS>BOND
   1    1   24 2
   2    1   13 1
   3    1   25 1
   4    2   11 1
   5    2   26 1
   6    2   27 1
   7    2   28 1
   8    3    4 2
   9    3    9 1
  10    3    8 1
  11    4    5 1
  12    4   11 1
  13    5    6 am
  14    5   22 2
  15    6    7 1
  16    6   15 1
  17    7    8 2
  18    8   29 1
  19    9   10 2
  20    9   12 1
  21   10   11 1
  22   10   14 1
  23   12   13 1
  24   13   14 2
  25   14   30 1
  26   15   16 1
  27   15   31 1
  28   15   32 1
  29   16   17 ar
  30   16   21 ar
  31   17   18 ar
  32   17   23 1
  33   18   19 ar
  34   18   33 1
  35   19   20 ar
  36   19   34 1
  37   20   21 ar
  38   20   35 1
  39   21   36 1
  40   24   37 1
  41   24   38 1

#	End of record

