#	Name: ASD02039455
#	Creating user name:	WinNT
#	Creation time:	15. 06. 2019 20:18

#	Modifying user name:	WinNT
#	Modification time:	15. 06. 2019 20:18

#	Program:	/corina/corina34_cracker 3.40 0067  02.08.2006

@<TRIPOS>MOLECULE
ASD02039455
  49   52    0    0    0
SMALL
NO_CHARGES


@<TRIPOS>ATOM
   1 C1             0.1499     1.1860     0.0763 C.ar    
   2 C2             0.4315    -0.1672     0.1950 C.ar    
   3 C3             1.2614     2.2018     0.0152 C.3     
   4 N4             1.7337     2.3263    -1.3660 N.am    
   5 C5             1.2464     3.3006    -2.1596 C.2     
   6 C6             0.1673     4.1770    -1.6720 C.2     
   7 C7            -0.4871     5.1298    -2.3965 C.2     
   8 N8            -0.3610     4.1797    -0.4214 N.2     
   9 C9            -1.2924     5.0870    -0.3599 C.2     
  10 N10           -1.3969     5.6964    -1.5695 N.pl3   
  11 O11            1.6975     3.4561    -3.2783 O.2     
  12 C12           -2.3268     6.7739    -1.9165 C.3     
  13 C13            2.7358     1.3918    -1.8845 C.3     
  14 C14           -0.6109    -1.0750     0.2486 C.ar    
  15 C15           -2.1747     0.6127     0.0634 C.ar    
  16 C16           -1.1752     1.5819     0.0095 C.ar    
  17 C17           -3.5986     1.0202    -0.0074 C.ar    
  18 C18           -4.6035     0.0540     0.0462 C.ar    
  19 C19           -5.9260     0.4311    -0.0194 C.ar    
  20 C20           -6.2615     1.7823    -0.1398 C.ar    
  21 C21           -5.2540     2.7490    -0.1934 C.ar    
  22 C22           -3.9324     2.3698    -0.1218 C.ar    
  23 N23           -1.8631    -0.6713     0.1885 N.ar    
  24 C24            2.3154     0.7010    -3.1925 C.3     
  25 C25            3.7688     0.8798    -3.6620 C.3     
  26 C26            3.8518     2.0723    -2.6947 C.3     
  27 C27           -7.6366     2.1758    -0.2087 C.1     
  28 N28           -8.7275     2.4879    -0.2633 N.1     
  29 H29            1.4549    -0.5087     0.2446 H       
  30 H30            0.8910     3.1669     0.3609 H       
  31 H31            2.0843     1.8788     0.6528 H       
  32 H32           -0.3126     5.3838    -3.4316 H       
  33 H33           -1.8881     5.3161     0.5114 H       
  34 H34           -1.8594     7.7372    -1.7118 H       
  35 H35           -2.5785     6.7098    -2.9751 H       
  36 H36           -3.2344     6.6766    -1.3207 H       
  37 H37            3.1042     0.7020    -1.1252 H       
  38 H38           -0.3950    -2.1292     0.3406 H       
  39 H39           -1.4301     2.6264    -0.0920 H       
  40 H40           -4.3439    -0.9902     0.1389 H       
  41 H41           -6.7037    -0.3171     0.0217 H       
  42 H42           -5.5120     3.7936    -0.2868 H       
  43 H43           -3.1535     3.1169    -0.1628 H       
  44 H44            2.0238    -0.3411    -3.0617 H       
  45 H45            1.5944     1.2732    -3.7763 H       
  46 H46            4.4209     0.0501    -3.3892 H       
  47 H47            3.8571     1.1616    -4.7112 H       
  48 H48            3.5508     3.0195    -3.1425 H       
  49 H49            4.8005     2.1373    -2.1621 H       
@<TRIPOS>BOND
   1    1    2 ar
   2    1    3 1
   3    1   16 ar
   4    2   14 ar
   5    2   29 1
   6    3    4 1
   7    3   30 1
   8    3   31 1
   9    4    5 am
  10    4   13 1
  11    5    6 1
  12    5   11 2
  13    6    7 2
  14    6    8 1
  15    7   10 1
  16    7   32 1
  17    8    9 2
  18    9   10 1
  19    9   33 1
  20   10   12 1
  21   12   34 1
  22   12   35 1
  23   12   36 1
  24   13   24 1
  25   13   26 1
  26   13   37 1
  27   14   23 ar
  28   14   38 1
  29   15   16 ar
  30   15   17 1
  31   15   23 ar
  32   16   39 1
  33   17   18 ar
  34   17   22 ar
  35   18   19 ar
  36   18   40 1
  37   19   20 ar
  38   19   41 1
  39   20   21 ar
  40   20   27 1
  41   21   22 ar
  42   21   42 1
  43   22   43 1
  44   24   25 1
  45   24   44 1
  46   24   45 1
  47   25   26 1
  48   25   46 1
  49   25   47 1
  50   26   48 1
  51   26   49 1
  52   27   28 3

#	End of record

