#	Name: ASD07301345
#	Creating user name:	WinNT
#	Creation time:	15. 06. 2019 21:11

#	Modifying user name:	WinNT
#	Modification time:	15. 06. 2019 21:11

#	Program:	/corina/corina34_cracker 3.40 0067  02.08.2006

@<TRIPOS>MOLECULE
ASD07301345
  39   42    0    0    0
SMALL
NO_CHARGES


@<TRIPOS>ATOM
   1 C1             0.0254     1.8670     0.0158 C.2     
   2 C2            -0.1277     0.4031    -0.0067 C.2     
   3 C3             1.0529    -0.3687    -0.1279 C.2     
   4 C4             2.2350     0.2914    -0.2141 C.2     
   5 N5             2.2781     1.6427    -0.1844 N.pl3   
   6 N6             1.2339     2.3783    -0.0764 N.2     
   7 O7            -1.2272    -0.1236     0.0761 O.2     
   8 N8            -1.2447     3.8930     0.8703 N.pl3   
   9 N9            -2.5352     4.4101     0.7012 N.2     
  10 C10           -3.2042     3.6189    -0.0992 C.2     
  11 C11           -2.3767     2.5622    -0.4788 C.2     
  12 C12           -1.1562     2.7454     0.1335 C.2     
  13 C13           -0.2255     4.4546     1.6499 C.ar    
  14 C14           -0.0034     5.8251     1.6225 C.ar    
  15 C15            1.0020     6.3758     2.3927 C.ar    
  16 C16            1.7871     5.5640     3.1908 C.ar    
  17 C17            1.5684     4.1989     3.2203 C.ar    
  18 C18            0.5611     3.6427     2.4564 C.ar    
  19 C19            3.5252     2.2695    -0.2767 C.ar    
  20 C20            4.6885     1.5122    -0.2377 C.ar    
  21 C21            5.9220     2.1369    -0.3299 C.ar    
  22 C22            5.9921     3.5171    -0.4610 C.ar    
  23 C23            4.8335     4.2691    -0.4996 C.ar    
  24 C24            3.6016     3.6499    -0.4133 C.ar    
  25 O25            7.0624     1.3988    -0.2917 O.3     
  26 H26            1.0138    -1.4478    -0.1505 H       
  27 H27            3.1532    -0.2694    -0.3074 H       
  28 H28           -4.2277     3.7609    -0.4133 H       
  29 H29           -2.6445     1.7470    -1.1347 H       
  30 H30           -0.6160     6.4596     0.9991 H       
  31 H31            1.1754     7.4416     2.3715 H       
  32 H32            2.5729     5.9970     3.7919 H       
  33 H33            2.1835     3.5675     3.8443 H       
  34 H34            0.3882     2.5770     2.4831 H       
  35 H35            4.6320     0.4386    -0.1354 H       
  36 H36            6.9536     4.0037    -0.5324 H       
  37 H37            4.8911     5.3428    -0.6016 H       
  38 H38            2.6975     4.2397    -0.4479 H       
  39 H39            7.3685     1.1026    -1.1598 H       
@<TRIPOS>BOND
   1    1    2 1
   2    1    6 2
   3    1   12 1
   4    2    3 1
   5    2    7 2
   6    3    4 2
   7    3   26 1
   8    4    5 1
   9    4   27 1
  10    5    6 1
  11    5   19 1
  12    8    9 1
  13    8   12 1
  14    8   13 1
  15    9   10 2
  16   10   11 1
  17   10   28 1
  18   11   12 2
  19   11   29 1
  20   13   14 ar
  21   13   18 ar
  22   14   15 ar
  23   14   30 1
  24   15   16 ar
  25   15   31 1
  26   16   17 ar
  27   16   32 1
  28   17   18 ar
  29   17   33 1
  30   18   34 1
  31   19   20 ar
  32   19   24 ar
  33   20   21 ar
  34   20   35 1
  35   21   22 ar
  36   21   25 1
  37   22   23 ar
  38   22   36 1
  39   23   24 ar
  40   23   37 1
  41   24   38 1
  42   25   39 1

#	End of record

