#	Name: ASD01880057
#	Creating user name:	WinNT
#	Creation time:	15. 06. 2019 19:39

#	Modifying user name:	WinNT
#	Modification time:	15. 06. 2019 19:39

#	Program:	/corina/corina34_cracker 3.40 0067  02.08.2006

@<TRIPOS>MOLECULE
ASD01880057
  46   48    0    0    0
SMALL
NO_CHARGES


@<TRIPOS>ATOM
   1 C1             2.4740     0.5332    -0.5582 C.ar    
   2 C2             3.1605    -0.6647    -0.6151 C.ar    
   3 N3             4.4736    -0.6960    -0.4962 N.ar    
   4 C4             5.1803     0.4032    -0.3200 C.ar    
   5 C5             4.5624     1.6379    -0.2534 C.ar    
   6 C6             3.1833     1.7105    -0.3739 C.ar    
   7 C7             5.3776     2.8892    -0.0514 C.3     
   8 N8             5.7695     3.4324    -1.3543 N.am    
   9 C9             4.8969     4.2745    -2.0523 C.ar    
  10 S10            7.2452     3.0497    -2.0010 S.o2    
  11 C11            6.9380     1.5494    -2.9733 C.3     
  12 C12            8.2704     0.9732    -3.4567 C.3     
  13 O13            7.5480     4.1442    -2.8551 O.2     
  14 O14            8.0566     2.7549    -0.8723 O.2     
  15 C15            3.9403     5.0085    -1.3634 C.ar    
  16 C16            3.0794     5.8394    -2.0530 C.ar    
  17 C17            3.1698     5.9406    -3.4336 C.ar    
  18 C18            4.1252     5.2077    -4.1225 C.ar    
  19 C19            4.9908     4.3811    -3.4337 C.ar    
  20 O20            2.3211     6.7583    -4.1121 O.3     
  21 C21            2.3723     6.7457    -5.4698 C.ar    
  22 C22            1.5931     5.8486    -6.1864 C.ar    
  23 C23            1.6470     5.8378    -7.5667 C.ar    
  24 C24            2.4768     6.7197    -8.2342 C.ar    
  25 C25            3.2547     7.6143    -7.5226 C.ar    
  26 C26            3.1996     7.6338    -6.1425 C.ar    
  27 H27            1.3990     0.5527    -0.6603 H       
  28 H28            2.6154    -1.5859    -0.7584 H       
  29 H29            6.2542     0.3380    -0.2263 H       
  30 H30            2.6735     2.6613    -0.3258 H       
  31 H31            4.7827     3.6276     0.4861 H       
  32 H32            6.2706     2.6516     0.5267 H       
  33 H33            6.4272     0.8128    -2.3532 H       
  34 H34            6.3150     1.7951    -3.8333 H       
  35 H35            8.7812     1.7099    -4.0768 H       
  36 H36            8.8934     0.7276    -2.5967 H       
  37 H37            8.0858     0.0718    -4.0409 H       
  38 H38            3.8693     4.9292    -0.2887 H       
  39 H39            2.3353     6.4102    -1.5174 H       
  40 H40            4.1947     5.2868    -5.1974 H       
  41 H41            5.7348     3.8108    -3.9701 H       
  42 H42            0.9453     5.1591    -5.6654 H       
  43 H43            1.0407     5.1398    -8.1249 H       
  44 H44            2.5178     6.7094    -9.3134 H       
  45 H45            3.9022     8.3018    -8.0464 H       
  46 H46            3.8073     8.3328    -5.5871 H       
@<TRIPOS>BOND
   1    1    2 ar
   2    1    6 ar
   3    1   27 1
   4    2    3 ar
   5    2   28 1
   6    3    4 ar
   7    4    5 ar
   8    4   29 1
   9    5    6 ar
  10    5    7 1
  11    6   30 1
  12    7    8 1
  13    7   31 1
  14    7   32 1
  15    8    9 1
  16    8   10 am
  17    9   15 ar
  18    9   19 ar
  19   10   11 1
  20   10   13 2
  21   10   14 2
  22   11   12 1
  23   11   33 1
  24   11   34 1
  25   12   35 1
  26   12   36 1
  27   12   37 1
  28   15   16 ar
  29   15   38 1
  30   16   17 ar
  31   16   39 1
  32   17   18 ar
  33   17   20 1
  34   18   19 ar
  35   18   40 1
  36   19   41 1
  37   20   21 1
  38   21   22 ar
  39   21   26 ar
  40   22   23 ar
  41   22   42 1
  42   23   24 ar
  43   23   43 1
  44   24   25 ar
  45   24   44 1
  46   25   26 ar
  47   25   45 1
  48   26   46 1

#	End of record

