#	Name: ASD01840352
#	Creating user name:	WinNT
#	Creation time:	15. 06. 2019 19:37

#	Modifying user name:	WinNT
#	Modification time:	15. 06. 2019 19:37

#	Program:	/corina/corina34_cracker 3.40 0067  02.08.2006

@<TRIPOS>MOLECULE
ASD01840352
  46   48    0    0    0
SMALL
NO_CHARGES


@<TRIPOS>ATOM
   1 C1             0.2611     1.7549    -0.9983 C.ar    
   2 C2             0.3841     0.5321    -1.6198 C.ar    
   3 N3             1.4995    -0.1675    -1.4972 N.ar    
   4 N4             2.5004     0.2430    -0.8118 N.ar    
   5 C5             1.3549     2.2265    -0.2365 C.ar    
   6 C6             1.5105     3.4571     0.5168 C.2     
   7 C7             2.4929     1.4123    -0.1671 C.ar    
   8 S8             3.7248     2.1825     0.8227 S.3     
   9 C9             2.7119     3.5787     1.1339 C.2     
  10 C10           -0.9999     2.5692    -1.1315 C.3     
  11 C11           -0.7563    -0.0107    -2.4418 C.3     
  12 N12            0.5177     4.4242     0.5980 N.pl3   
  13 C13            3.1102     4.7241     1.9509 C.2     
  14 N14            4.3297     4.7515     2.5241 N.am    
  15 C15            6.1265     5.6834     3.8627 C.ar    
  16 C16            7.2120     6.1240     3.1277 C.ar    
  17 C17            8.4954     5.9322     3.6058 C.ar    
  18 C18            8.6925     5.2962     4.8254 C.ar    
  19 C19            7.6017     4.8562     5.5588 C.ar    
  20 C20            6.3211     5.0506     5.0760 C.ar    
  21 O21            2.3401     5.6530     2.1135 O.2     
  22 C22            4.7286     5.8991     3.3427 C.3     
  23 F23            9.5560     6.3621     2.8878 F       
  24 O24            9.9528     5.1056     5.2982 O.3     
  25 C25           10.0797     4.4446     6.5588 C.3     
  26 O26            9.8292     3.0477     6.3915 O.3     
  27 C27           10.9003     2.3356     5.7689 C.3     
  28 H28           -1.6441     2.3847    -0.2719 H       
  29 H29           -0.7457     3.6283    -1.1743 H       
  30 H30           -1.5220     2.2837    -2.0448 H       
  31 H31           -0.6499     0.3210    -3.4746 H       
  32 H32           -0.7432    -1.1000    -2.4069 H       
  33 H33           -1.7009     0.3544    -2.0385 H       
  34 H34           -0.4030     4.1920     0.4000 H       
  35 H35            0.7448     5.3322     0.8529 H       
  36 H36            4.9432     4.0114     2.3946 H       
  37 H37            7.0573     6.6178     2.1797 H       
  38 H38            7.7522     4.3616     6.5071 H       
  39 H39            5.4715     4.7076     5.6477 H       
  40 H40            4.7022     6.8045     2.7365 H       
  41 H41            4.0409     6.0034     4.1819 H       
  42 H42           11.0887     4.5891     6.9449 H       
  43 H43            9.3585     4.8614     7.2618 H       
  44 H44           11.0846     2.7503     4.7778 H       
  45 H45           11.8009     2.4305     6.3756 H       
  46 H46           10.6326     1.2829     5.6783 H       
@<TRIPOS>BOND
   1    1    2 ar
   2    1    5 ar
   3    1   10 1
   4    2   11 1
   5    2    3 ar
   6    3    4 ar
   7    4    7 ar
   8    5    7 ar
   9    5    6 1
  10    6    9 2
  11    6   12 1
  12    7    8 1
  13    8    9 1
  14    9   13 1
  15   10   28 1
  16   10   29 1
  17   10   30 1
  18   11   31 1
  19   11   32 1
  20   11   33 1
  21   12   34 1
  22   12   35 1
  23   13   14 am
  24   13   21 2
  25   14   22 1
  26   14   36 1
  27   15   16 ar
  28   15   20 ar
  29   15   22 1
  30   16   17 ar
  31   16   37 1
  32   17   18 ar
  33   17   23 1
  34   18   19 ar
  35   18   24 1
  36   19   20 ar
  37   19   38 1
  38   20   39 1
  39   22   40 1
  40   22   41 1
  41   24   25 1
  42   25   26 1
  43   25   42 1
  44   25   43 1
  45   26   27 1
  46   27   44 1
  47   27   45 1
  48   27   46 1

#	End of record

