#	Name: ASD01901487
#	Creating user name:	WinNT
#	Creation time:	15. 06. 2019 19:53

#	Modifying user name:	WinNT
#	Modification time:	15. 06. 2019 19:53

#	Program:	/corina/corina34_cracker 3.40 0067  02.08.2006

@<TRIPOS>MOLECULE
ASD01901487
  39   42    0    0    0
SMALL
NO_CHARGES


@<TRIPOS>ATOM
   1 C1             0.9180    -0.1590     1.0422 C.ar    
   2 C2             2.0973     0.5575     1.0316 C.ar    
   3 C3             2.3746     1.4227    -0.0117 C.ar    
   4 C4             1.4725     1.5751    -1.0489 C.ar    
   5 C5             0.2896     0.8638    -1.0484 C.ar    
   6 C6             0.0055    -0.0098    -0.0007 C.ar    
   7 C7            -1.2638    -0.7777     0.0050 C.2     
   8 N8            -2.3534    -2.8762    -0.0977 N.2     
   9 C9            -1.2413    -2.1852    -0.1013 C.2     
  10 N10           -2.4175    -0.1492     0.1147 N.2     
  11 N11           -3.6005    -0.8981     0.1173 N.pl3   
  12 C12           -3.5411    -2.2668     0.0063 C.2     
  13 C13           -4.9169    -0.5582     0.2127 C.2     
  14 C14           -5.6303    -1.7067     0.1593 C.2     
  15 N15           -4.7827    -2.7300     0.0336 N.2     
  16 C16           -7.1319    -1.8127     0.2296 C.3     
  17 O17           -7.6959    -0.5065     0.3624 O.3     
  18 C18           -9.0480    -0.4243     0.4397 C.ar    
  19 N19           -9.7752    -1.5282     0.3906 N.ar    
  20 C20           -9.6550     0.8174     0.5754 C.ar    
  21 C21          -11.0352     0.8875     0.6532 C.ar    
  22 C22          -11.7624    -0.2930     0.5922 C.ar    
  23 C23          -11.0922    -1.4933     0.4624 C.ar    
  24 C24            0.6202    -1.1059     2.1762 C.3     
  25 H25            2.8049     0.4428     1.8394 H       
  26 H26            3.2988     1.9816    -0.0160 H       
  27 H27            1.6939     2.2523    -1.8607 H       
  28 H28           -0.4141     0.9836    -1.8589 H       
  29 H29           -0.2949    -2.6984    -0.1869 H       
  30 H30           -5.3158     0.4405     0.3122 H       
  31 H31           -7.5062    -2.2792    -0.6816 H       
  32 H32           -7.4134    -2.4192     1.0904 H       
  33 H33           -9.0580     1.7163     0.6199 H       
  34 H34          -11.5348     1.8391     0.7593 H       
  35 H35          -12.8407    -0.2734     0.6503 H       
  36 H36          -11.6531    -2.4152     0.4189 H       
  37 H37            0.9258    -2.1143     1.8973 H       
  38 H38            1.1686    -0.7927     3.0646 H       
  39 H39           -0.4492    -1.0955     2.3869 H       
@<TRIPOS>BOND
   1    1    6 ar
   2    1    2 ar
   3    1   24 1
   4    2    3 ar
   5    2   25 1
   6    3    4 ar
   7    3   26 1
   8    4    5 ar
   9    4   27 1
  10    5    6 ar
  11    5   28 1
  12    6    7 1
  13    7   10 2
  14    7    9 1
  15    8    9 2
  16    8   12 1
  17    9   29 1
  18   10   11 1
  19   11   13 1
  20   11   12 1
  21   12   15 2
  22   13   14 2
  23   13   30 1
  24   14   15 1
  25   14   16 1
  26   16   17 1
  27   16   31 1
  28   16   32 1
  29   17   18 1
  30   18   19 ar
  31   18   20 ar
  32   19   23 ar
  33   20   21 ar
  34   20   33 1
  35   21   22 ar
  36   21   34 1
  37   22   23 ar
  38   22   35 1
  39   23   36 1
  40   24   37 1
  41   24   38 1
  42   24   39 1

#	End of record

