#	Name: ASD01883587
#	Creating user name:	WinNT
#	Creation time:	15. 06. 2019 19:46

#	Modifying user name:	WinNT
#	Modification time:	15. 06. 2019 19:46

#	Program:	/corina/corina34_cracker 3.40 0067  02.08.2006

@<TRIPOS>MOLECULE
ASD01883587
  47   49    0    0    0
SMALL
NO_CHARGES


@<TRIPOS>ATOM
   1 C1            -2.0650     2.1191     0.1311 C.2     
   2 C2            -2.5165     0.8533     0.2552 C.2     
   3 N3            -1.7178    -0.1290     0.7507 N.am    
   4 C4            -0.4533     0.1276     1.1330 C.2     
   5 C5             0.0656     1.4261     1.0249 C.2     
   6 C6            -0.7428     2.4344     0.5198 C.2     
   7 O7             0.2438    -0.7721     1.5753 O.2     
   8 Cl8            1.6952     1.7670     1.5166 Cl      
   9 C9            -0.2296     3.8173     0.3905 C.ar    
  10 C10           -0.0855     4.3944    -0.8716 C.ar    
  11 C11            0.3925     5.6830    -0.9882 C.ar    
  12 C12            0.7302     6.4058     0.1501 C.ar    
  13 C13            0.5876     5.8334     1.4077 C.ar    
  14 C14            0.1056     4.5482     1.5311 C.ar    
  15 O15            1.2010     7.6743     0.0324 O.3     
  16 C16            1.6212     8.3051     1.1584 C.ar    
  17 C17            2.9401     8.1915     1.5907 C.ar    
  18 C18            3.3281     8.8483     2.7406 C.ar    
  19 N19            2.4673     9.5756     3.4270 N.ar    
  20 C20            1.2095     9.7074     3.0495 C.ar    
  21 C21            0.7454     9.0875     1.9079 C.ar    
  22 C22           -2.2434    -1.4912     0.8711 C.3     
  23 C23           -1.9635    -2.2619    -0.4207 C.3     
  24 C24            0.2702    10.5509     3.8725 C.3     
  25 Cl25           0.5729     6.4024    -2.5578 Cl      
  26 C26           -2.5124    -3.6845    -0.2950 C.3     
  27 C27           -2.2325    -4.4551    -1.5868 C.3     
  28 H28           -2.7102     2.8877    -0.2682 H       
  29 H29           -3.5273     0.6173    -0.0431 H       
  30 H30           -0.3475     3.8328    -1.7561 H       
  31 H31            0.8513     6.3976     2.2901 H       
  32 H32           -0.0049     4.1041     2.5094 H       
  33 H33            3.6495     7.5972     1.0339 H       
  34 H34            4.3489     8.7657     3.0833 H       
  35 H35           -0.2849     9.1997     1.6043 H       
  36 H36           -1.7584    -1.9952     1.7071 H       
  37 H37           -3.3187    -1.4518     1.0449 H       
  38 H38           -2.4484    -1.7579    -1.2567 H       
  39 H39           -0.8882    -2.3013    -0.5945 H       
  40 H40            0.2974    11.5799     3.5141 H       
  41 H41           -0.7435    10.1608     3.7806 H       
  42 H42            0.5772    10.5220     4.9179 H       
  43 H43           -2.0274    -4.1884     0.5411 H       
  44 H44           -3.5877    -3.6450    -0.1212 H       
  45 H45           -2.7174    -3.9511    -2.4228 H       
  46 H46           -1.1572    -4.4946    -1.7606 H       
  47 H47           -2.6235    -5.4686    -1.4972 H       
@<TRIPOS>BOND
   1    1    2 2
   2    1    6 1
   3    1   28 1
   4    2    3 1
   5    2   29 1
   6    3    4 am
   7    3   22 1
   8    4    5 1
   9    4    7 2
  10    5    6 2
  11    5    8 1
  12    6    9 1
  13    9   10 ar
  14    9   14 ar
  15   10   11 ar
  16   10   30 1
  17   11   12 ar
  18   11   25 1
  19   12   13 ar
  20   12   15 1
  21   13   14 ar
  22   13   31 1
  23   14   32 1
  24   15   16 1
  25   16   17 ar
  26   16   21 ar
  27   17   18 ar
  28   17   33 1
  29   18   19 ar
  30   18   34 1
  31   19   20 ar
  32   20   21 ar
  33   20   24 1
  34   21   35 1
  35   22   23 1
  36   22   36 1
  37   22   37 1
  38   23   26 1
  39   23   38 1
  40   23   39 1
  41   24   40 1
  42   24   41 1
  43   24   42 1
  44   26   27 1
  45   26   43 1
  46   26   44 1
  47   27   45 1
  48   27   46 1
  49   27   47 1

#	End of record

