#	Name: ASD01918099
#	Creating user name:	WinNT
#	Creation time:	15. 06. 2019 20:10

#	Modifying user name:	WinNT
#	Modification time:	15. 06. 2019 20:10

#	Program:	/corina/corina34_cracker 3.40 0067  02.08.2006

@<TRIPOS>MOLECULE
ASD01918099
  44   47    0    0    0
SMALL
NO_CHARGES


@<TRIPOS>ATOM
   1 N1            -0.0168     1.3955     0.0082 N.am    
   2 C2             0.0023    -0.0040     0.0036 C.2     
   3 C3             2.4249    -0.1097    -0.5682 C.3     
   4 C4             2.2006     1.3396    -1.0143 C.3     
   5 C5             1.3003     2.0622    -0.0060 C.3     
   6 C6            -0.9996    -0.8780     0.2388 C.2     
   7 C7            -0.4723    -2.1701     0.1172 C.2     
   8 N8             0.8010    -2.0710    -0.1808 N.2     
   9 N9             1.1279    -0.7179    -0.2602 N.pl3   
  10 C10           -1.2378    -3.4554     0.2985 C.3     
  11 O11           -2.5989    -3.1583     0.6170 O.3     
  12 C12           -1.1698     2.0934     0.0191 C.2     
  13 C13           -1.1405     3.5952     0.1408 C.3     
  14 O14           -2.2310     1.5127    -0.0691 O.2     
  15 C15           -3.4312    -4.2145     0.8136 C.ar    
  16 C16           -4.7656    -3.9988     1.1259 C.ar    
  17 C17           -5.6096    -5.0741     1.3253 C.ar    
  18 C18           -5.1255    -6.3644     1.2139 C.ar    
  19 C19           -3.7959    -6.5820     0.9031 C.ar    
  20 C20           -2.9492    -5.5101     0.6967 C.ar    
  21 C21           -2.5258     4.2506     0.0140 C.3     
  22 C22           -1.1239     4.0951     1.5950 C.3     
  23 C23           -2.0927     5.2006     1.1432 C.3     
  24 H24            2.9084    -0.6677    -1.3701 H       
  25 H25            3.0554    -0.1246     0.3208 H       
  26 H26            3.1605     1.8524    -1.0751 H       
  27 H27            1.7248     1.3471    -1.9950 H       
  28 H28            1.1803     3.1040    -0.3031 H       
  29 H29            1.7475     2.0108     0.9868 H       
  30 H30           -2.0224    -0.6265     0.4779 H       
  31 H31           -1.1987    -4.0348    -0.6239 H       
  32 H32           -0.7926    -4.0322     1.1092 H       
  33 H33           -0.3800     4.0561    -0.4894 H       
  34 H34           -5.1441    -2.9911     1.2134 H       
  35 H35           -6.6484    -4.9067     1.5688 H       
  36 H36           -5.7869    -7.2038     1.3701 H       
  37 H37           -3.4199    -7.5909     0.8173 H       
  38 H38           -1.9107    -5.6806     0.4540 H       
  39 H39           -2.6860     4.7516    -0.9406 H       
  40 H40           -3.3481     3.5906     0.2901 H       
  41 H41           -1.5630     3.3924     2.3033 H       
  42 H42           -0.1525     4.4705     1.9167 H       
  43 H43           -1.5922     6.1014     0.7880 H       
  44 H44           -2.8827     5.4104     1.8643 H       
@<TRIPOS>BOND
   1    1    2 1
   2    1    5 1
   3    1   12 am
   4    2    6 2
   5    2    9 1
   6    3    4 1
   7    3    9 1
   8    3   24 1
   9    3   25 1
  10    4    5 1
  11    4   26 1
  12    4   27 1
  13    5   28 1
  14    5   29 1
  15    6    7 1
  16    6   30 1
  17    7    8 2
  18    7   10 1
  19    8    9 1
  20   10   11 1
  21   10   31 1
  22   10   32 1
  23   11   15 1
  24   12   13 1
  25   12   14 2
  26   13   21 1
  27   13   22 1
  28   13   33 1
  29   15   16 ar
  30   15   20 ar
  31   16   17 ar
  32   16   34 1
  33   17   18 ar
  34   17   35 1
  35   18   19 ar
  36   18   36 1
  37   19   20 ar
  38   19   37 1
  39   20   38 1
  40   21   23 1
  41   21   39 1
  42   21   40 1
  43   22   23 1
  44   22   41 1
  45   22   42 1
  46   23   43 1
  47   23   44 1

#	End of record

