#	Name: ASD01840402
#	Creating user name:	WinNT
#	Creation time:	15. 06. 2019 19:37

#	Modifying user name:	WinNT
#	Modification time:	15. 06. 2019 19:37

#	Program:	/corina/corina34_cracker 3.40 0067  02.08.2006

@<TRIPOS>MOLECULE
ASD01840402
  62   65    0    0    0
SMALL
NO_CHARGES


@<TRIPOS>ATOM
   1 C1             0.3805     2.1370    -0.1444 C.ar    
   2 C2             0.4071     0.7742    -0.3437 C.ar    
   3 N3             1.5196     0.0923    -0.1313 N.ar    
   4 N4             2.6054     0.6468     0.2609 N.ar    
   5 C5             1.5686     2.7687     0.2885 C.ar    
   6 C6             1.8355     4.1657     0.5768 C.2     
   7 C7             2.6958     1.9597     0.4855 C.ar    
   8 S8             4.0545     2.9397     1.0185 S.3     
   9 C9             3.1076     4.4141     0.9757 C.2     
  10 C10           -0.8767     2.9319    -0.3867 C.3     
  11 C11           -0.8361     0.0582    -0.8050 C.3     
  12 N12            0.8740     5.1597     0.4546 N.pl3   
  13 C13            3.6221     5.7380     1.3228 C.2     
  14 O14            2.8913     6.7100     1.2629 O.2     
  15 N15            4.9052     5.8824     1.7090 N.am    
  16 C16            5.4207     7.2089     2.0567 C.3     
  17 C17            6.6274     7.1000     3.0259 C.3     
  18 C18            7.4191     8.3932     2.7387 C.3     
  19 N19            7.0367     8.8497     1.3945 N.am    
  20 C20            6.0698     7.8922     0.8273 C.3     
  21 C21            7.4935     9.9603     0.7825 C.2     
  22 C22            8.3733    10.8953     1.5108 C.ar    
  23 C23            8.7094    12.1271     0.9430 C.ar    
  24 C24            9.5304    12.9966     1.6256 C.ar    
  25 C25           10.0247    12.6505     2.8777 C.ar    
  26 C26            9.6931    11.4260     3.4457 C.ar    
  27 C27            8.8676    10.5536     2.7723 C.ar    
  28 O28           10.8336    13.5102     3.5473 O.3     
  29 C29           11.3061    13.0914     4.8292 C.3     
  30 C30           12.1967    14.1829     5.4261 C.3     
  31 C31           12.7025    13.7345     6.7987 C.3     
  32 C32           13.5931    14.8261     7.3956 C.3     
  33 O33            7.1809    10.1918    -0.3694 O.2     
  34 H34           -1.3935     3.0919     0.5595 H       
  35 H35           -0.6184     3.8950    -0.8270 H       
  36 H36           -1.5275     2.3838    -1.0680 H       
  37 H37           -0.8583     0.0341    -1.8945 H       
  38 H38           -0.8327    -0.9611    -0.4191 H       
  39 H39           -1.7164     0.5838    -0.4352 H       
  40 H40           -0.0157     4.9376     0.1383 H       
  41 H41            1.0919     6.0763     0.6856 H       
  42 H42            5.4874     5.1080     1.7567 H       
  43 H43            4.6339     7.8326     2.4810 H       
  44 H44            6.2892     7.0770     4.0619 H       
  45 H45            7.2288     6.2206     2.7958 H       
  46 H46            7.1645     9.1551     3.4754 H       
  47 H47            8.4891     8.1875     2.7698 H       
  48 H48            6.5836     7.1547     0.2107 H       
  49 H49            5.3146     8.4171     0.2424 H       
  50 H50            8.3260    12.3966    -0.0300 H       
  51 H51            9.7910    13.9487     1.1873 H       
  52 H52           10.0797    11.1605     4.4186 H       
  53 H53            8.6064     9.6044     3.2164 H       
  54 H54           10.4570    12.9140     5.4892 H       
  55 H55           11.8811    12.1717     4.7218 H       
  56 H56           13.0458    14.3603     4.7661 H       
  57 H57           11.6217    15.1027     5.5335 H       
  58 H58           11.8534    13.5571     7.4587 H       
  59 H59           13.2776    12.8148     6.6913 H       
  60 H60           14.4423    15.0034     6.7356 H       
  61 H61           13.0181    15.7458     7.5030 H       
  62 H62           13.9535    14.5066     8.3734 H       
@<TRIPOS>BOND
   1    1    2 ar
   2    1    5 ar
   3    1   10 1
   4    2   11 1
   5    2    3 ar
   6    3    4 ar
   7    4    7 ar
   8    5    7 ar
   9    5    6 1
  10    6    9 2
  11    6   12 1
  12    7    8 1
  13    8    9 1
  14    9   13 1
  15   10   34 1
  16   10   35 1
  17   10   36 1
  18   11   37 1
  19   11   38 1
  20   11   39 1
  21   12   40 1
  22   12   41 1
  23   13   14 2
  24   13   15 am
  25   15   16 1
  26   15   42 1
  27   16   17 1
  28   16   20 1
  29   16   43 1
  30   17   18 1
  31   17   44 1
  32   17   45 1
  33   18   19 1
  34   18   46 1
  35   18   47 1
  36   19   20 1
  37   19   21 am
  38   20   48 1
  39   20   49 1
  40   21   22 1
  41   21   33 2
  42   22   23 ar
  43   22   27 ar
  44   23   24 ar
  45   23   50 1
  46   24   25 ar
  47   24   51 1
  48   25   26 ar
  49   25   28 1
  50   26   27 ar
  51   26   52 1
  52   27   53 1
  53   28   29 1
  54   29   30 1
  55   29   54 1
  56   29   55 1
  57   30   31 1
  58   30   56 1
  59   30   57 1
  60   31   32 1
  61   31   58 1
  62   31   59 1
  63   32   60 1
  64   32   61 1
  65   32   62 1

#	End of record

