#	Name: ASD03091095
#	Creating user name:	WinNT
#	Creation time:	15. 06. 2019 20:30

#	Modifying user name:	WinNT
#	Modification time:	15. 06. 2019 20:30

#	Program:	/corina/corina34_cracker 3.40 0067  02.08.2006

@<TRIPOS>MOLECULE
ASD03091095
  67   69    0    0    0
SMALL
NO_CHARGES


@<TRIPOS>ATOM
   1 N1            -0.2119     1.0517    -0.2096 N.am    
   2 C2            -0.0402    -0.4018    -0.0942 C.3     
   3 C3             1.4673    -0.6924     0.0150 C.3     
   4 C4             2.0713     0.6841     0.4411 C.3     
   5 C5             1.1164     1.6849    -0.2450 C.3     
   6 N6             1.9491    -0.7030     2.4001 N.3     
   7 C7             1.7193    -1.5854     1.2436 C.3     
   8 C8             1.7993     0.6990     1.9614 C.3     
   9 C9            -1.3918     1.6994    -0.2779 C.2     
  10 O10           -2.4320     1.0721    -0.2450 O.2     
  11 O11           -1.4180     3.0414    -0.3824 O.3     
  12 C12            1.0622    -1.0001     3.4421 C.ar    
  13 C13            0.5595     0.0190     4.2319 C.ar    
  14 C14           -0.3254    -0.2788     5.2713 C.ar    
  15 C15           -0.6975    -1.6111     5.5059 C.ar    
  16 C16           -0.1842    -2.6224     4.7044 C.ar    
  17 C17            0.6846    -2.3184     3.6767 C.ar    
  18 C18           -0.8650     0.8013     6.1175 C.2     
  19 N19           -0.4144     2.0628     5.9688 N.am    
  20 O20           -1.7166     0.5540     6.9495 O.2     
  21 C21           -0.9505     3.1360     6.8095 C.3     
  22 C22           -0.2856     4.4387     6.4460 C.2     
  23 O23            0.5535     4.4677     5.5708 O.2     
  24 N24           -0.6235     5.5714     7.0935 N.am    
  25 C25            0.0229     6.8377     6.7402 C.3     
  26 C26           -0.7091     7.4707     5.5551 C.3     
  27 C27           -0.0285     7.7882     7.9380 C.3     
  28 N28           -1.5779    -1.9183     6.5389 N.pl3   
  29 C29           -2.7242     3.6719    -0.4512 C.3     
  30 C30           -3.5168     3.3427     0.8154 C.3     
  31 C31           -2.5533     5.1880    -0.5663 C.3     
  32 C32           -3.4788     3.1494    -1.6753 C.3     
  33 H33           -0.5513    -0.7639     0.7979 H       
  34 H34           -0.4475    -0.8927    -0.9780 H       
  35 H35            1.8951    -1.0849    -0.9075 H       
  36 H36            3.1179     0.8160     0.1666 H       
  37 H37            1.4257     1.8544    -1.2763 H       
  38 H38            1.0997     2.6265     0.3038 H       
  39 H39            0.8490    -2.2155     1.4270 H       
  40 H40            2.5978    -2.2079     1.0738 H       
  41 H41            2.5264     1.3330     2.4687 H       
  42 H42            0.7870     1.0506     2.1603 H       
  43 H43            0.8508     1.0421     4.0455 H       
  44 H44           -0.4690    -3.6487     4.8834 H       
  45 H45            1.0769    -3.1085     3.0535 H       
  46 H46            0.2649     2.2601     5.3050 H       
  47 H47           -2.0255     3.2199     6.6501 H       
  48 H48           -0.7553     2.9085     7.8575 H       
  49 H49           -1.2946     5.5482     7.7935 H       
  50 H50            1.0619     6.6518     6.4681 H       
  51 H51           -0.2282     8.4128     5.2922 H       
  52 H52           -0.6726     6.7935     4.7017 H       
  53 H53           -1.7481     7.6566     5.8271 H       
  54 H54            0.4931     7.3373     8.7823 H       
  55 H55            0.4524     8.7304     7.6751 H       
  56 H56           -1.0675     7.9741     8.2100 H       
  57 H57           -1.6738    -1.3128     7.2906 H       
  58 H58           -2.0957    -2.7379     6.5072 H       
  59 H59           -2.9792     3.7149     1.6874 H       
  60 H60           -4.4973     3.8159     0.7637 H       
  61 H61           -3.6385     2.2626     0.8973 H       
  62 H62           -1.9886     5.4225    -1.4686 H       
  63 H63           -3.5338     5.6612    -0.6180 H       
  64 H64           -2.0157     5.5602     0.3058 H       
  65 H65           -3.6005     2.0693    -1.5934 H       
  66 H66           -4.4593     3.6227    -1.7270 H       
  67 H67           -2.9141     3.3839    -2.5777 H       
@<TRIPOS>BOND
   1    1    2 1
   2    1    5 1
   3    1    9 am
   4    2    3 1
   5    2   33 1
   6    2   34 1
   7    3    4 1
   8    3    7 1
   9    3   35 1
  10    4    5 1
  11    4    8 1
  12    4   36 1
  13    5   37 1
  14    5   38 1
  15    6    7 1
  16    6    8 1
  17    6   12 1
  18    7   39 1
  19    7   40 1
  20    8   41 1
  21    8   42 1
  22    9   10 2
  23    9   11 1
  24   11   29 1
  25   12   13 ar
  26   12   17 ar
  27   13   14 ar
  28   13   43 1
  29   14   15 ar
  30   14   18 1
  31   15   16 ar
  32   15   28 1
  33   16   17 ar
  34   16   44 1
  35   17   45 1
  36   18   19 am
  37   18   20 2
  38   19   21 1
  39   19   46 1
  40   21   22 1
  41   21   47 1
  42   21   48 1
  43   22   23 2
  44   22   24 am
  45   24   25 1
  46   24   49 1
  47   25   26 1
  48   25   27 1
  49   25   50 1
  50   26   51 1
  51   26   52 1
  52   26   53 1
  53   27   54 1
  54   27   55 1
  55   27   56 1
  56   28   57 1
  57   28   58 1
  58   29   30 1
  59   29   32 1
  60   29   31 1
  61   30   59 1
  62   30   60 1
  63   30   61 1
  64   31   62 1
  65   31   63 1
  66   31   64 1
  67   32   65 1
  68   32   66 1
  69   32   67 1

#	End of record

