#	Name: ASD01915029
#	Creating user name:	WinNT
#	Creation time:	15. 06. 2019 20:04

#	Modifying user name:	WinNT
#	Modification time:	15. 06. 2019 20:04

#	Program:	/corina/corina34_cracker 3.40 0067  02.08.2006

@<TRIPOS>MOLECULE
ASD01915029
  43   46    0    0    0
SMALL
NO_CHARGES


@<TRIPOS>ATOM
   1 C1            -0.2243     1.4608    -1.1265 C.ar    
   2 C2            -0.2357     0.0857    -1.2806 C.ar    
   3 C3             0.9614    -0.6060    -1.1444 C.ar    
   4 C4             2.1178     0.0948    -0.8615 C.ar    
   5 N5             2.0959     1.4067    -0.7203 N.ar    
   6 C6             0.9762     2.0994    -0.8426 C.ar    
   7 O7             1.0001     3.4474    -0.6892 O.3     
   8 C8             2.2651     4.0450    -0.3984 C.3     
   9 C9             2.0970     5.5365    -0.2633 C.2     
  10 C10            0.8952     6.2456    -0.3927 C.2     
  11 N11            3.0495     6.3999     0.0019 N.2     
  12 C12            1.2323     7.5540    -0.1928 C.2     
  13 C13            0.4247     8.7832    -0.1936 C.2     
  14 N14            2.5861     7.5869     0.0598 N.pl3   
  15 C15            3.2730     8.8499     0.3556 C.3     
  16 C16            2.5574     9.9929    -0.3630 C.3     
  17 N17            1.1093     9.9526    -0.1732 N.am    
  18 O18           -0.7912     8.7520    -0.2120 O.2     
  19 C19            3.2514     9.1021     1.8645 C.3     
  20 Cl20           1.0035    -2.3318    -1.3273 Cl      
  21 C21            0.4147    11.1474     0.0392 C.ar    
  22 C22            0.3173    12.0864    -0.9802 C.ar    
  23 C23           -0.3695    13.2656    -0.7688 C.ar    
  24 C24           -0.9607    13.5137     0.4563 C.ar    
  25 C25           -0.8661    12.5805     1.4753 C.ar    
  26 C26           -0.1838    11.3951     1.2672 C.ar    
  27 F27           -1.4444    12.8258     2.6714 F       
  28 H28           -1.1360     2.0305    -1.2300 H       
  29 H29           -1.1542    -0.4379    -1.5014 H       
  30 H30            3.0513    -0.4377    -0.7541 H       
  31 H31            2.6536     3.6372     0.5348 H       
  32 H32            2.9632     3.8298    -1.2074 H       
  33 H33           -0.0849     5.8445    -0.6048 H       
  34 H34            4.3052     8.7925     0.0102 H       
  35 H35            2.9362    10.9411     0.0184 H       
  36 H36            2.7766     9.9312    -1.4290 H       
  37 H37            3.7585     8.2845     2.3768 H       
  38 H38            3.7616    10.0401     2.0835 H       
  39 H39            2.2187     9.1613     2.2082 H       
  40 H40            0.7788    11.8942    -1.9375 H       
  41 H41           -0.4447    13.9954    -1.5614 H       
  42 H42           -1.4969    14.4369     0.6190 H       
  43 H43           -0.1136    10.6652     2.0601 H       
@<TRIPOS>BOND
   1    1    2 ar
   2    1    6 ar
   3    1   28 1
   4    2    3 ar
   5    2   29 1
   6    3    4 ar
   7    3   20 1
   8    4    5 ar
   9    4   30 1
  10    5    6 ar
  11    6    7 1
  12    7    8 1
  13    8    9 1
  14    8   31 1
  15    8   32 1
  16    9   11 2
  17    9   10 1
  18   10   12 2
  19   10   33 1
  20   11   14 1
  21   12   14 1
  22   12   13 1
  23   13   17 am
  24   13   18 2
  25   14   15 1
  26   15   16 1
  27   15   19 1
  28   15   34 1
  29   16   17 1
  30   16   35 1
  31   16   36 1
  32   17   21 1
  33   19   37 1
  34   19   38 1
  35   19   39 1
  36   21   22 ar
  37   21   26 ar
  38   22   23 ar
  39   22   40 1
  40   23   24 ar
  41   23   41 1
  42   24   25 ar
  43   24   42 1
  44   25   26 ar
  45   25   27 1
  46   26   43 1

#	End of record

