#	Name: ASD08178385
#	Creating user name:	WinNT
#	Creation time:	15. 06. 2019 21:18

#	Modifying user name:	WinNT
#	Modification time:	15. 06. 2019 21:18

#	Program:	/corina/corina34_cracker 3.40 0067  02.08.2006

@<TRIPOS>MOLECULE
ASD08178385
  50   52    0    0    0
SMALL
NO_CHARGES


@<TRIPOS>ATOM
   1 N1            -0.0168     1.3863     0.0097 N.pl3   
   2 C2             0.0021    -0.0041     0.0020 C.ar    
   3 C3             1.2170    -0.6881    -0.0133 C.ar    
   4 N4            -1.1345    -0.6854     0.0148 N.ar    
   5 N5            -1.1599    -1.9686     0.0088 N.ar    
   6 C6            -0.0597    -2.6944    -0.0105 C.ar    
   7 C7             1.1814    -2.0736    -0.0199 C.ar    
   8 C8            -0.1496    -4.1987    -0.0166 C.3     
   9 C9            -0.9891    -4.6643     1.1747 C.3     
  10 C10           -1.0804    -6.1916     1.1684 C.3     
  11 C11           -1.9199    -6.6572     2.3598 C.3     
  12 C12           -2.0099    -8.1615     2.3536 C.2     
  13 N13           -1.1920    -8.9782     2.9383 N.2     
  14 N14           -1.4395   -10.2100     2.8153 N.2     
  15 C15           -2.4828   -10.5489     2.1197 C.2     
  16 S16           -3.2522    -9.1262     1.5551 S.3     
  17 N17           -2.9080   -11.8509     1.8781 N.am    
  18 C18           -2.2166   -12.8907     2.3853 C.2     
  19 C19           -2.6774   -14.3014     2.1235 C.3     
  20 O20           -1.2235   -12.6910     3.0523 O.2     
  21 C21           -1.7385   -15.2695     2.7961 C.ar    
  22 C22           -1.9804   -15.6769     4.0935 C.ar    
  23 C23           -1.1158   -16.5686     4.7121 C.ar    
  24 C24           -0.0103   -17.0486     4.0254 C.ar    
  25 C25            0.2273   -16.6380     2.7277 C.ar    
  26 C26           -0.6386   -15.7536     2.1119 C.ar    
  27 O27           -1.3514   -16.9706     5.9887 O.3     
  28 C28           -0.4195   -17.8899     6.5618 C.3     
  29 F29            0.8547   -17.3127     6.5786 F       
  30 F30           -0.8104   -18.1955     7.8699 F       
  31 F31           -0.3906   -19.0617     5.7980 F       
  32 H32            0.8166     1.8827     0.0044 H       
  33 H33           -0.8633     1.8598     0.0163 H       
  34 H34            2.1563    -0.1550    -0.0201 H       
  35 H35            2.0927    -2.6531    -0.0356 H       
  36 H36           -0.6180    -4.5309    -0.9431 H       
  37 H37            0.8518    -4.6229     0.0566 H       
  38 H38           -0.5207    -4.3322     2.1012 H       
  39 H39           -1.9905    -4.2402     1.1014 H       
  40 H40           -1.5488    -6.5238     0.2419 H       
  41 H41           -0.0790    -6.6158     1.2417 H       
  42 H42           -1.4515    -6.3251     3.2863 H       
  43 H43           -2.9213    -6.2331     2.2865 H       
  44 H44           -3.7022   -12.0106     1.3446 H       
  45 H45           -3.6833   -14.4348     2.5216 H       
  46 H46           -2.6838   -14.4882     1.0497 H       
  47 H47           -2.8416   -15.3014     4.6262 H       
  48 H48            0.6643   -17.7425     4.5048 H       
  49 H49            1.0879   -17.0115     2.1926 H       
  50 H50           -0.4511   -15.4338     1.0975 H       
@<TRIPOS>BOND
   1    1    2 1
   2    1   32 1
   3    1   33 1
   4    2    3 ar
   5    2    4 ar
   6    3    7 ar
   7    3   34 1
   8    4    5 ar
   9    5    6 ar
  10    6    7 ar
  11    6    8 1
  12    7   35 1
  13    8    9 1
  14    8   36 1
  15    8   37 1
  16    9   10 1
  17    9   38 1
  18    9   39 1
  19   10   11 1
  20   10   40 1
  21   10   41 1
  22   11   12 1
  23   11   42 1
  24   11   43 1
  25   12   13 2
  26   12   16 1
  27   13   14 1
  28   14   15 2
  29   15   16 1
  30   15   17 1
  31   17   18 am
  32   17   44 1
  33   18   19 1
  34   18   20 2
  35   19   21 1
  36   19   45 1
  37   19   46 1
  38   21   22 ar
  39   21   26 ar
  40   22   23 ar
  41   22   47 1
  42   23   24 ar
  43   23   27 1
  44   24   25 ar
  45   24   48 1
  46   25   26 ar
  47   25   49 1
  48   26   50 1
  49   27   28 1
  50   28   29 1
  51   28   30 1
  52   28   31 1

#	End of record

