#	Name: ASD03540344
#	Creating user name:	WinNT
#	Creation time:	15. 06. 2019 20:43

#	Modifying user name:	WinNT
#	Modification time:	15. 06. 2019 20:43

#	Program:	/corina/corina34_cracker 3.40 0067  02.08.2006

@<TRIPOS>MOLECULE
ASD03540344
  55   59    0    0    0
SMALL
NO_CHARGES


@<TRIPOS>ATOM
   1 C1            -0.0161     1.3365     0.0094 C.2     
   2 N2             0.0021    -0.0041     0.0020 N.am    
   3 C3             1.1934    -0.7075    -0.0132 C.2     
   4 C4             2.3927    -0.0052    -0.0209 C.2     
   5 C5             2.3194     1.4731    -0.0123 C.2     
   6 N6             1.1112     2.0659     0.0025 N.am    
   7 C7             3.5132    -0.8389    -0.0357 C.2     
   8 C8             3.2261    -2.1513    -0.0396 C.2     
   9 S9             1.4880    -2.3901    -0.0245 S.3     
  10 C10            4.2202    -3.2270    -0.0552 C.2     
  11 O11            5.4074    -2.9586    -0.0657 O.2     
  12 N12            3.8203    -4.5141    -0.0579 N.am    
  13 C13            4.8145    -5.5900    -0.0735 C.3     
  14 C14            4.1013    -6.9436    -0.0734 C.3     
  15 N15            6.5051    -9.6368    -0.7977 N.pl3   
  16 C16            5.5864    -8.6947    -1.1724 C.2     
  17 C17            5.1240    -8.0503    -0.0894 C.2     
  18 C18            5.8021    -8.6270     1.0740 C.ar    
  19 C19            5.7477    -8.3845     2.4480 C.ar    
  20 C20            6.5296    -9.1153     3.2972 C.ar    
  21 C21            7.3782   -10.0977     2.8050 C.ar    
  22 C22            7.4479   -10.3532     1.4532 C.ar    
  23 C23            6.6602    -9.6213     0.5703 C.ar    
  24 O24            3.3359     2.1421    -0.0183 O.2     
  25 O25           -1.0880     1.9102     0.0175 O.2     
  26 C26           -1.2652    -0.7390     0.0107 C.3     
  27 C27            1.0247     3.5284     0.0113 C.3     
  28 C28            1.0086     4.0221     1.4350 C.ar    
  29 C29            2.1963     4.3193     2.0769 C.ar    
  30 C30            2.1816     4.7722     3.3829 C.ar    
  31 C31            0.9792     4.9283     4.0468 C.ar    
  32 C32           -0.2085     4.6320     3.4046 C.ar    
  33 C33           -0.1940     4.1833     2.0972 C.ar    
  34 H34            4.5248    -0.4605    -0.0436 H       
  35 H35            2.8742    -4.7281    -0.0495 H       
  36 H36            5.4295    -5.5035    -0.9692 H       
  37 H37            5.4474    -5.5127     0.8106 H       
  38 H38            3.4862    -7.0301     0.8224 H       
  39 H39            3.4684    -7.0209    -0.9575 H       
  40 H40            6.9742   -10.2302    -1.4050 H       
  41 H41            5.2790    -8.4982    -2.1890 H       
  42 H42            5.0902    -7.6216     2.8380 H       
  43 H43            6.4875    -8.9271     4.3598 H       
  44 H44            7.9902   -10.6672     3.4889 H       
  45 H45            8.1114   -11.1193     1.0801 H       
  46 H46           -2.0950    -0.0323     0.0228 H       
  47 H47           -1.3306    -1.3610    -0.8820 H       
  48 H48           -1.3129    -1.3705     0.8978 H       
  49 H49            1.8867     3.9464    -0.5086 H       
  50 H50            0.1099     3.8413    -0.4921 H       
  51 H51            3.1357     4.1973     1.5582 H       
  52 H52            3.1095     5.0037     3.8846 H       
  53 H53            0.9677     5.2815     5.0674 H       
  54 H54           -1.1479     4.7537     3.9234 H       
  55 H55           -1.1222     3.9553     1.5942 H       
@<TRIPOS>BOND
   1    1    2 am
   2    1    6 am
   3    1   25 2
   4    2    3 1
   5    2   26 1
   6    3    4 2
   7    3    9 1
   8    4    5 1
   9    4    7 1
  10    5    6 am
  11    5   24 2
  12    6   27 1
  13    7    8 2
  14    7   34 1
  15    8    9 1
  16    8   10 1
  17   10   11 2
  18   10   12 am
  19   12   13 1
  20   12   35 1
  21   13   14 1
  22   13   36 1
  23   13   37 1
  24   14   17 1
  25   14   38 1
  26   14   39 1
  27   15   16 1
  28   15   23 1
  29   15   40 1
  30   16   17 2
  31   16   41 1
  32   17   18 1
  33   18   19 ar
  34   18   23 ar
  35   19   20 ar
  36   19   42 1
  37   20   21 ar
  38   20   43 1
  39   21   22 ar
  40   21   44 1
  41   22   23 ar
  42   22   45 1
  43   26   46 1
  44   26   47 1
  45   26   48 1
  46   27   28 1
  47   27   49 1
  48   27   50 1
  49   28   29 ar
  50   28   33 ar
  51   29   30 ar
  52   29   51 1
  53   30   31 ar
  54   30   52 1
  55   31   32 ar
  56   31   53 1
  57   32   33 ar
  58   32   54 1
  59   33   55 1

#	End of record

