#	Name: ASD01913343
#	Creating user name:	WinNT
#	Creation time:	15. 06. 2019 20:01

#	Modifying user name:	WinNT
#	Modification time:	15. 06. 2019 20:01

#	Program:	/corina/corina34_cracker 3.40 0067  02.08.2006

@<TRIPOS>MOLECULE
ASD01913343
  42   44    0    0    0
SMALL
NO_CHARGES


@<TRIPOS>ATOM
   1 C1            -0.0166     1.3764     0.0096 C.2     
   2 C2             0.0021    -0.0041     0.0020 C.2     
   3 C3             1.2499    -0.6727    -0.0135 C.2     
   4 N4             2.3635     0.0159    -0.0204 N.2     
   5 C5             2.3515     1.3566    -0.0131 C.2     
   6 N6             1.1688     2.0507     0.0019 N.pl3   
   7 C7             3.3714     2.2994    -0.0173 C.2     
   8 C8             2.7835     3.5556    -0.0047 C.2     
   9 N9             1.4771     3.4160     0.0068 N.2     
  10 C10            3.5236     4.8684    -0.0034 C.3     
  11 C11            4.0869     5.1376    -1.4002 C.3     
  12 C12            2.5636     5.9946     0.3851 C.3     
  13 C13            4.6715     4.8057     1.0061 C.3     
  14 C14           -1.2215    -0.7480     0.0102 C.1     
  15 C15           -2.2246    -1.3579     0.0169 C.1     
  16 C16           -3.4482    -2.1018     0.0250 C.ar    
  17 C17           -3.4192    -3.4992     0.0172 C.ar    
  18 C18           -4.5993    -4.2108     0.0256 C.ar    
  19 C19           -5.8162    -3.5415     0.0413 C.ar    
  20 C20           -5.8502    -2.1531     0.0491 C.ar    
  21 C21           -4.6753    -1.4328     0.0466 C.ar    
  22 O22           -6.9771    -4.2474     0.0486 O.3     
  23 C23           -8.1928    -3.4964     0.0648 C.3     
  24 H24           -0.9539     1.9131     0.0170 H       
  25 H25            1.2833    -1.7522    -0.0192 H       
  26 H26            4.4312     2.0918    -0.0279 H       
  27 H27            3.2691     5.1822    -2.1195 H       
  28 H28            4.6222     6.0871    -1.3993 H       
  29 H29            4.7708     4.3352    -1.6770 H       
  30 H30            2.1622     5.8028     1.3802 H       
  31 H31            3.0989     6.9441     0.3860 H       
  32 H32            1.7458     6.0393    -0.3341 H       
  33 H33            5.3554     4.0034     0.7293 H       
  34 H34            5.2068     5.7553     1.0070 H       
  35 H35            4.2701     4.6140     2.0012 H       
  36 H36           -2.4734    -4.0205     0.0043 H       
  37 H37           -4.5779    -5.2905     0.0196 H       
  38 H38           -6.7989    -1.6370     0.0609 H       
  39 H39           -4.7027    -0.3532     0.0530 H       
  40 H40           -8.2232    -2.8734     0.9587 H       
  41 H41           -8.2406    -2.8633    -0.8212 H       
  42 H42           -9.0420    -4.1798     0.0692 H       
@<TRIPOS>BOND
   1    1    2 2
   2    1    6 1
   3    1   24 1
   4    2    3 1
   5    2   14 1
   6    3    4 2
   7    3   25 1
   8    4    5 1
   9    5    6 1
  10    5    7 2
  11    6    9 1
  12    7    8 1
  13    7   26 1
  14    8    9 2
  15    8   10 1
  16   10   11 1
  17   10   12 1
  18   10   13 1
  19   11   27 1
  20   11   28 1
  21   11   29 1
  22   12   30 1
  23   12   31 1
  24   12   32 1
  25   13   33 1
  26   13   34 1
  27   13   35 1
  28   14   15 3
  29   15   16 1
  30   16   17 ar
  31   16   21 ar
  32   17   18 ar
  33   17   36 1
  34   18   19 ar
  35   18   37 1
  36   19   20 ar
  37   19   22 1
  38   20   21 ar
  39   20   38 1
  40   21   39 1
  41   22   23 1
  42   23   40 1
  43   23   41 1
  44   23   42 1

#	End of record

