#	Name: ASD01912951
#	Creating user name:	WinNT
#	Creation time:	15. 06. 2019 20:00

#	Modifying user name:	WinNT
#	Modification time:	15. 06. 2019 20:00

#	Program:	/corina/corina34_cracker 3.40 0067  02.08.2006

@<TRIPOS>MOLECULE
ASD01912951
  28   30    0    0    0
SMALL
NO_CHARGES


@<TRIPOS>ATOM
   1 C1            -0.0173     1.4278     0.0099 C.2     
   2 C2             0.0021    -0.0041     0.0020 C.1     
   3 C3             0.0180    -1.1779    -0.0044 C.1     
   4 C4             0.0374    -2.6098    -0.0123 C.ar    
   5 C5            -1.1620    -3.3288    -0.0047 C.ar    
   6 C6             1.2553    -3.2956    -0.0335 C.ar    
   7 C7             1.2656    -4.6759    -0.0414 C.ar    
   8 C8             0.0733    -5.3803    -0.0289 C.ar    
   9 C9            -1.1359    -4.7073    -0.0129 C.ar    
  10 N10            1.0415     2.1986     0.0039 N.2     
  11 C11            0.8594     3.4897     0.0116 C.2     
  12 C12           -0.4743     3.8657     0.0266 C.2     
  13 S13           -1.4699     2.4259     0.0214 S.3     
  14 C14            1.9378     4.5631     0.0034 C.3     
  15 C15            1.3985     5.7948    -0.7200 C.3     
  16 N16            0.0738     6.1865    -0.2568 N.am    
  17 C17           -0.8821     5.2749     0.0397 C.2     
  18 O18           -2.0228     5.6077     0.3035 O.2     
  19 Cl19           2.7764    -5.5306    -0.0677 Cl      
  20 H20           -2.1066    -2.8055     0.0078 H       
  21 H21            2.1855    -2.7470    -0.0439 H       
  22 H22            0.0872    -6.4602    -0.0360 H       
  23 H23           -2.0616    -5.2635    -0.0032 H       
  24 H24            2.1992     4.8264     1.0283 H       
  25 H25            2.8202     4.1908    -0.5170 H       
  26 H26            2.0864     6.6253    -0.5609 H       
  27 H27            1.3489     5.5818    -1.7878 H       
  28 H28           -0.1295     7.1298    -0.1576 H       
@<TRIPOS>BOND
   1    1    2 1
   2    1   10 2
   3    1   13 1
   4    2    3 3
   5    3    4 1
   6    4    5 ar
   7    4    6 ar
   8    5    9 ar
   9    5   20 1
  10    6    7 ar
  11    6   21 1
  12    7    8 ar
  13    7   19 1
  14    8    9 ar
  15    8   22 1
  16    9   23 1
  17   10   11 1
  18   11   12 2
  19   11   14 1
  20   12   13 1
  21   12   17 1
  22   14   15 1
  23   14   24 1
  24   14   25 1
  25   15   16 1
  26   15   26 1
  27   15   27 1
  28   16   17 am
  29   16   28 1
  30   17   18 2

#	End of record

