#	Name: ASD01940661
#	Creating user name:	WinNT
#	Creation time:	15. 06. 2019 20:12

#	Modifying user name:	WinNT
#	Modification time:	15. 06. 2019 20:12

#	Program:	/corina/corina34_cracker 3.40 0067  02.08.2006

@<TRIPOS>MOLECULE
ASD01940661
  48   50    0    0    0
SMALL
NO_CHARGES


@<TRIPOS>ATOM
   1 C1             0.6706     0.4035     1.3438 C.ar    
   2 C2            -0.1048     0.1651     0.2240 C.ar    
   3 C3             0.3711     0.4911    -1.0345 C.ar    
   4 C4             1.6276     1.0578    -1.1777 C.ar    
   5 C5             2.4106     1.2996    -0.0568 C.ar    
   6 C6             1.9289     0.9708     1.2093 C.ar    
   7 N7             2.7147     1.2130     2.3440 N.am    
   8 S8             2.6811     0.1531     3.6160 S.o2    
   9 C9             3.2213    -1.4255     2.9042 C.3     
  10 O10            3.6593     0.6550     4.5162 O.2     
  11 O11            1.3100     0.0909     3.9842 O.2     
  12 F12           -0.3906     0.2559    -2.1252 F       
  13 F13            2.0904     1.3744    -2.4068 F       
  14 N14            3.6822     1.8723    -0.1980 N.pl3   
  15 C15            4.7799     1.0674    -0.5172 C.ar    
  16 C16            6.0615     1.6091    -0.5309 C.ar    
  17 C17            4.5945    -0.2757    -0.8157 C.ar    
  18 C18            5.6814    -1.0687    -1.1308 C.ar    
  19 C19            6.9531    -0.5270    -1.1489 C.ar    
  20 C20            7.1439     0.8095    -0.8471 C.ar    
  21 F21            6.2477     2.9143    -0.2361 F       
  22 C22            3.1873    -2.6576     3.8107 C.3     
  23 C23            2.1578    -2.5043     2.6892 C.3     
  24 C24            8.1354    -1.3960    -1.4927 C.3     
  25 C25            8.3741    -1.3580    -3.0035 C.3     
  26 C26            9.5744    -2.2403    -3.3526 C.3     
  27 C27            9.8131    -2.2022    -4.8633 C.3     
  28 H28            0.2941     0.1520     2.3243 H       
  29 H29           -1.0843    -0.2771     0.3314 H       
  30 H30            3.2782     2.0014     2.3844 H       
  31 H31            4.0275    -1.3604     2.1735 H       
  32 H32            3.8005     2.8271    -0.0743 H       
  33 H33            3.6017    -0.7005    -0.8013 H       
  34 H34            5.5371    -2.1135    -1.3630 H       
  35 H35            8.1388     1.2294    -0.8623 H       
  36 H36            3.9709    -3.4033     3.6760 H       
  37 H37            2.8403    -2.5196     4.8347 H       
  38 H38            1.1336    -2.2654     2.9755 H       
  39 H39            2.2642    -3.1490     1.8168 H       
  40 H40            9.0207    -1.0263    -0.9755 H       
  41 H41            7.9350    -2.4215    -1.1823 H       
  42 H42            7.4887    -1.7277    -3.5207 H       
  43 H43            8.5745    -0.3325    -3.3139 H       
  44 H44           10.4597    -1.8705    -2.8354 H       
  45 H45            9.3740    -3.2657    -3.0421 H       
  46 H46           10.6682    -2.8307    -5.1120 H       
  47 H47            8.9277    -2.5719    -5.3805 H       
  48 H48           10.0135    -1.1767    -5.1738 H       
@<TRIPOS>BOND
   1    1    2 ar
   2    1    6 ar
   3    1   28 1
   4    2    3 ar
   5    2   29 1
   6    3    4 ar
   7    3   12 1
   8    4    5 ar
   9    4   13 1
  10    5    6 ar
  11    5   14 1
  12    6    7 1
  13    7    8 am
  14    7   30 1
  15    8    9 1
  16    8   10 2
  17    8   11 2
  18    9   22 1
  19    9   23 1
  20    9   31 1
  21   14   15 1
  22   14   32 1
  23   15   16 ar
  24   15   17 ar
  25   16   21 1
  26   16   20 ar
  27   17   18 ar
  28   17   33 1
  29   18   19 ar
  30   18   34 1
  31   19   20 ar
  32   19   24 1
  33   20   35 1
  34   22   23 1
  35   22   36 1
  36   22   37 1
  37   23   38 1
  38   23   39 1
  39   24   25 1
  40   24   40 1
  41   24   41 1
  42   25   26 1
  43   25   42 1
  44   25   43 1
  45   26   27 1
  46   26   44 1
  47   26   45 1
  48   27   46 1
  49   27   47 1
  50   27   48 1

#	End of record

