#	Name: ASD08150505
#	Creating user name:	WinNT
#	Creation time:	15. 06. 2019 21:16

#	Modifying user name:	WinNT
#	Modification time:	15. 06. 2019 21:16

#	Program:	/corina/corina34_cracker 3.40 0067  02.08.2006

@<TRIPOS>MOLECULE
ASD08150505
  46   50    0    0    0
SMALL
NO_CHARGES


@<TRIPOS>ATOM
   1 N1             0.4828     2.1328     1.7870 N.am    
   2 C2             0.7440     1.1730     2.6957 C.2     
   3 C3             1.9573     0.4562     2.6627 C.2     
   4 C4             2.8840     0.7254     1.7081 C.2     
   5 C5             2.6124     1.7341     0.7502 C.ar    
   6 C6             3.5395     2.0520    -0.2609 C.ar    
   7 N7             3.2866     2.9828    -1.1431 N.ar    
   8 C8             2.1417     3.6830    -1.1389 C.ar    
   9 C9             1.1519     3.4298    -0.1583 C.ar    
  10 C10            1.3951     2.4294     0.8113 C.ar    
  11 C11           -0.2333     5.1354    -1.1270 C.ar    
  12 C12            0.7455     5.3809    -2.0926 C.ar    
  13 C13            1.9096     4.6751    -2.1046 C.ar    
  14 O14           -0.0800     0.9214     3.5584 O.2     
  15 C15           -0.7324     2.8271     1.8379 C.ar    
  16 C16           -1.8536     2.3138     1.1997 C.ar    
  17 C17           -3.0511     3.0002     1.2511 C.ar    
  18 C18           -3.1339     4.1994     1.9385 C.ar    
  19 C19           -2.0164     4.7133     2.5755 C.ar    
  20 C20           -0.8190     4.0272     2.5317 C.ar    
  21 C21           -0.0376     4.1672    -0.1638 C.ar    
  22 N22           -1.4232     5.8773    -1.1371 N.pl3   
  23 F23           -4.3061     4.8692     1.9875 F       
  24 C24           -1.5538     7.2040    -1.4571 C.2     
  25 C25           -2.8603     7.5073    -1.3374 C.2     
  26 N26           -3.5140     6.4002    -0.9551 N.2     
  27 C27           -2.6651     5.4157    -0.8375 C.2     
  28 C28           -3.4807     8.8574    -1.5888 C.3     
  29 C29           -4.2682     2.4439     0.5581 C.3     
  30 F30           -3.9391     1.2342    -0.0628 F       
  31 F31           -5.2809     2.2252     1.4982 F       
  32 F32           -4.7144     3.3558    -0.4044 F       
  33 H33            2.1503    -0.3095     3.3995 H       
  34 H34            3.8151     0.1789     1.6791 H       
  35 H35            4.4767     1.5173    -0.3081 H       
  36 H36            0.5764     6.1413    -2.8407 H       
  37 H37            2.6559     4.8790    -2.8581 H       
  38 H38           -1.7893     1.3787     0.6631 H       
  39 H39           -2.0830     5.6489     3.1108 H       
  40 H40            0.0520     4.4283     3.0286 H       
  41 H41           -0.7972     3.9795     0.5807 H       
  42 H42           -0.7609     7.8767    -1.7489 H       
  43 H43           -2.9083     4.4053    -0.5439 H       
  44 H44           -3.7791     8.9311    -2.6346 H       
  45 H45           -4.3567     8.9792    -0.9517 H       
  46 H46           -2.7551     9.6386    -1.3622 H       
@<TRIPOS>BOND
   1    1    2 am
   2    1   10 1
   3    1   15 1
   4    2    3 1
   5    2   14 2
   6    3    4 2
   7    3   33 1
   8    4    5 1
   9    4   34 1
  10    5    6 ar
  11    5   10 ar
  12    6    7 ar
  13    6   35 1
  14    7    8 ar
  15    8    9 ar
  16    8   13 ar
  17    9   10 ar
  18    9   21 ar
  19   11   12 ar
  20   11   22 1
  21   11   21 ar
  22   12   13 ar
  23   12   36 1
  24   13   37 1
  25   15   16 ar
  26   15   20 ar
  27   16   17 ar
  28   16   38 1
  29   17   18 ar
  30   17   29 1
  31   18   19 ar
  32   18   23 1
  33   19   20 ar
  34   19   39 1
  35   20   40 1
  36   21   41 1
  37   22   24 1
  38   22   27 1
  39   24   25 2
  40   24   42 1
  41   25   26 1
  42   25   28 1
  43   26   27 2
  44   27   43 1
  45   28   44 1
  46   28   45 1
  47   28   46 1
  48   29   30 1
  49   29   31 1
  50   29   32 1

#	End of record

