#	Name: ASD01810084
#	Creating user name:	WinNT
#	Creation time:	15. 06. 2019 19:23

#	Modifying user name:	WinNT
#	Modification time:	15. 06. 2019 19:23

#	Program:	/corina/corina34_cracker 3.40 0067  02.08.2006

@<TRIPOS>MOLECULE
ASD01810084
  39   42    0    0    0
SMALL
NO_CHARGES


@<TRIPOS>ATOM
   1 C1            -0.0167     1.3804     0.0096 C.ar    
   2 C2             0.0021    -0.0041     0.0020 C.ar    
   3 C3             1.2005    -0.6935    -0.0132 C.ar    
   4 C4             2.4043    -0.0017    -0.0205 C.ar    
   5 C5             2.3825     1.4028    -0.0128 C.ar    
   6 C6             1.1684     2.0883     0.0021 C.ar    
   7 N7             3.7234    -0.4489    -0.0358 N.am    
   8 C8             4.5905     0.5782    -0.0388 C.2     
   9 C9             3.7890     1.8460    -0.0242 C.2     
  10 O10            4.2062     2.9855    -0.0225 O.2     
  11 O11            5.8007     0.4950    -0.0505 O.2     
  12 C12            4.1161    -1.8603    -0.0472 C.3     
  13 C13            4.2368    -2.3366    -1.4719 C.ar    
  14 C14            5.3781    -2.0480    -2.2019 C.ar    
  15 C15            5.4928    -2.4837    -3.5092 C.ar    
  16 C16            4.4586    -3.2131    -4.0901 C.ar    
  17 C17            3.3134    -3.5000    -3.3502 C.ar    
  18 C18            3.2103    -3.0654    -2.0444 C.ar    
  19 C19            4.5758    -3.6833    -5.4936 C.2     
  20 C20            5.6691    -3.4678    -6.3550 C.2     
  21 N21            5.3996    -4.0328    -7.5020 N.2     
  22 N22            4.1343    -4.6264    -7.4191 N.pl3   
  23 C23            3.6465    -4.4076    -6.1814 C.2     
  24 C24            3.4592    -5.3628    -8.4906 C.3     
  25 F25            6.3799    -1.3397    -1.6363 F       
  26 H26           -0.9596     1.9070     0.0170 H       
  27 H27           -0.9291    -0.5511     0.0084 H       
  28 H28            1.2002    -1.7735    -0.0190 H       
  29 H29            1.1552     3.1682     0.0077 H       
  30 H30            5.0759    -1.9745     0.4566 H       
  31 H31            3.3611    -2.4517     0.4708 H       
  32 H32            6.3824    -2.2584    -4.0787 H       
  33 H33            2.5088    -4.0653    -3.7969 H       
  34 H34            2.3227    -3.2882    -1.4708 H       
  35 H35            6.5726    -2.9291    -6.1102 H       
  36 H36            2.6903    -4.7397    -5.8048 H       
  37 H37            3.7225    -6.4186    -8.4277 H       
  38 H38            2.3802    -5.2505    -8.3847 H       
  39 H39            3.7725    -4.9671    -9.4567 H       
@<TRIPOS>BOND
   1    1    2 ar
   2    1    6 ar
   3    1   26 1
   4    2    3 ar
   5    2   27 1
   6    3    4 ar
   7    3   28 1
   8    4    5 ar
   9    4    7 1
  10    5    6 ar
  11    5    9 1
  12    6   29 1
  13    7    8 am
  14    7   12 1
  15    8    9 1
  16    8   11 2
  17    9   10 2
  18   12   13 1
  19   12   30 1
  20   12   31 1
  21   13   14 ar
  22   13   18 ar
  23   14   15 ar
  24   14   25 1
  25   15   16 ar
  26   15   32 1
  27   16   17 ar
  28   16   19 1
  29   17   18 ar
  30   17   33 1
  31   18   34 1
  32   19   20 1
  33   19   23 2
  34   20   21 2
  35   20   35 1
  36   21   22 1
  37   22   23 1
  38   22   24 1
  39   23   36 1
  40   24   37 1
  41   24   38 1
  42   24   39 1

#	End of record

