#	Name: ASD08830182
#	Creating user name:	WinNT
#	Creation time:	15. 06. 2019 21:19

#	Modifying user name:	WinNT
#	Modification time:	15. 06. 2019 21:19

#	Program:	/corina/corina34_cracker 3.40 0067  02.08.2006

@<TRIPOS>MOLECULE
ASD08830182
  46   49    0    0    0
SMALL
NO_CHARGES


@<TRIPOS>ATOM
   1 C1            -0.0240     1.4847    -0.4068 C.ar    
   2 C2            -0.0057     0.0194    -0.5281 C.2     
   3 C3            -1.3011    -0.7498    -0.5663 C.3     
   4 C4            -1.0029    -2.2448    -0.6955 C.3     
   5 N5            -2.2656    -2.9946    -0.7327 N.3     
   6 O6             1.0518    -0.5702    -0.5974 O.2     
   7 C7            -1.2531     2.1643    -0.3208 C.ar    
   8 C8            -2.0329    -4.4009    -1.0925 C.3     
   9 C9            -3.3638    -5.1570    -1.0612 C.3     
  10 O10           -4.2900    -4.5183    -1.9442 O.3     
  11 C11           -4.5404    -3.1475    -1.6225 C.3     
  12 C12           -3.2214    -2.3711    -1.6595 C.3     
  13 C13            1.1732     2.1903    -0.3720 C.ar    
  14 C14            1.1488     3.5849    -0.2559 C.ar    
  15 C15           -0.0987     4.2549    -0.1758 C.ar    
  16 C16           -1.2902     3.5183    -0.2078 C.ar    
  17 C17            2.3448     4.3331    -0.2171 C.ar    
  18 C18            2.3267     5.6821    -0.1045 C.ar    
  19 C19            1.1220     6.3937    -0.0213 C.ar    
  20 C20           -0.0992     5.7039    -0.0557 C.ar    
  21 N21            0.8028     7.7185     0.0953 N.pl3   
  22 N22           -0.4687     7.8908     0.1346 N.2     
  23 C23           -1.1186     6.7475     0.0514 C.2     
  24 C24           -2.5814     6.5580     0.0645 C.2     
  25 O25           -3.1709     6.3050    -0.9685 O.2     
  26 N26           -3.2645     6.6652     1.2213 N.am    
  27 H27           -1.8584    -0.5686     0.3528 H       
  28 H28           -1.8931    -0.4222    -1.4208 H       
  29 H29           -0.4455    -2.4261    -1.6145 H       
  30 H30           -0.4108    -2.5724     0.1591 H       
  31 H31           -2.1763     1.6044    -0.3452 H       
  32 H32           -1.6072    -4.4546    -2.0945 H       
  33 H33           -1.3424    -4.8498    -0.3785 H       
  34 H34           -3.2052    -6.1864    -1.3826 H       
  35 H35           -3.7631    -5.1491    -0.0471 H       
  36 H36           -5.2328    -2.7236    -2.3498 H       
  37 H37           -4.9740    -3.0811    -0.6247 H       
  38 H38           -3.3985    -1.3383    -1.3593 H       
  39 H39           -2.8148    -2.3923    -2.6705 H       
  40 H40            2.1154     1.6661    -0.4337 H       
  41 H41           -2.2405     4.0279    -0.1468 H       
  42 H42            3.2929     3.8194    -0.2780 H       
  43 H43            3.2616     6.2222    -0.0778 H       
  44 H44            1.4538     8.4360     0.1428 H       
  45 H45           -2.7943     6.8670     2.0454 H       
  46 H46           -4.2265     6.5405     1.2299 H       
@<TRIPOS>BOND
   1    1    2 1
   2    1   13 ar
   3    1    7 ar
   4    2    3 1
   5    2    6 2
   6    3    4 1
   7    3   27 1
   8    3   28 1
   9    4    5 1
  10    4   29 1
  11    4   30 1
  12    5    8 1
  13    5   12 1
  14    7   16 ar
  15    7   31 1
  16    8    9 1
  17    8   32 1
  18    8   33 1
  19    9   10 1
  20    9   34 1
  21    9   35 1
  22   10   11 1
  23   11   12 1
  24   11   36 1
  25   11   37 1
  26   12   38 1
  27   12   39 1
  28   13   14 ar
  29   13   40 1
  30   14   15 ar
  31   14   17 ar
  32   15   16 ar
  33   15   20 ar
  34   16   41 1
  35   17   18 ar
  36   17   42 1
  37   18   19 ar
  38   18   43 1
  39   19   20 ar
  40   19   21 1
  41   20   23 1
  42   21   22 1
  43   21   44 1
  44   22   23 2
  45   23   24 1
  46   24   25 2
  47   24   26 am
  48   26   45 1
  49   26   46 1

#	End of record

