#	Name: ASD01914072
#	Creating user name:	WinNT
#	Creation time:	15. 06. 2019 20:02

#	Modifying user name:	WinNT
#	Modification time:	15. 06. 2019 20:02

#	Program:	/corina/corina34_cracker 3.40 0067  02.08.2006

@<TRIPOS>MOLECULE
ASD01914072
  35   37    0    0    0
SMALL
NO_CHARGES


@<TRIPOS>ATOM
   1 C1            -0.0167     1.3804     0.0096 C.ar    
   2 C2             0.0021    -0.0041     0.0020 C.ar    
   3 C3             2.4010     0.0296    -0.0208 C.ar    
   4 C4             2.3807     1.4165    -0.0131 C.ar    
   5 O5             3.5873    -0.6331    -0.0357 O.3     
   6 C6             3.5326    -2.0611    -0.0429 C.3     
   7 C7             4.9331    -2.6173    -0.0593 C.ar    
   8 N8             5.1120    -3.9244    -0.0681 N.ar    
   9 C9             6.3141    -4.4618    -0.0825 C.ar    
  10 C10            7.4523    -3.6545    -0.0886 C.ar    
  11 C11            7.2945    -2.2630    -0.0796 C.ar    
  12 C12            6.0101    -1.7489    -0.0706 C.ar    
  13 C13            8.8014    -4.2576    -0.1038 C.2     
  14 N14            8.9402    -5.5982    -0.1119 N.am    
  15 O15            9.7860    -3.5446    -0.1089 O.2     
  16 C16            1.2093    -0.6802    -0.0132 C.ar    
  17 C17           10.2081    -6.1651    -0.1262 C.2     
  18 F18           -1.1588    -0.6951     0.0099 F       
  19 C19            1.1721     2.0901     0.0021 C.ar    
  20 F20            1.1520     3.4410     0.0091 F       
  21 N21           10.4523    -7.4383    -0.1349 N.2     
  22 C22           11.7206    -7.8034    -0.1489 C.2     
  23 C23           12.5895    -6.7906    -0.1522 C.2     
  24 S24           11.6740    -5.2854    -0.1422 S.3     
  25 H25           -0.9595     1.9071     0.0170 H       
  26 H26            3.3079     1.9704    -0.0186 H       
  27 H27            3.0138    -2.4093     0.8502 H       
  28 H28            2.9968    -2.3997    -0.9297 H       
  29 H29            6.4201    -5.5366    -0.0893 H       
  30 H30            8.1533    -1.6081    -0.0835 H       
  31 H31            5.8498    -0.6808    -0.0635 H       
  32 H32            8.1546    -6.1672    -0.1078 H       
  33 H33            1.2237    -1.7601    -0.0188 H       
  34 H34           12.0302    -8.8380    -0.1567 H       
  35 H35           13.6659    -6.8783    -0.1623 H       
@<TRIPOS>BOND
   1    1    2 ar
   2    1   19 ar
   3    1   25 1
   4    2   16 ar
   5    2   18 1
   6    3    4 ar
   7    3    5 1
   8    3   16 ar
   9    4   19 ar
  10    4   26 1
  11    5    6 1
  12    6    7 1
  13    6   27 1
  14    6   28 1
  15    7    8 ar
  16    7   12 ar
  17    8    9 ar
  18    9   10 ar
  19    9   29 1
  20   10   11 ar
  21   10   13 1
  22   11   12 ar
  23   11   30 1
  24   12   31 1
  25   13   14 am
  26   13   15 2
  27   14   17 1
  28   14   32 1
  29   16   33 1
  30   17   21 2
  31   17   24 1
  32   19   20 1
  33   21   22 1
  34   22   23 2
  35   22   34 1
  36   23   24 1
  37   23   35 1

#	End of record

