#	Name: ASD02508467
#	Creating user name:	WinNT
#	Creation time:	15. 06. 2019 20:24

#	Modifying user name:	WinNT
#	Modification time:	15. 06. 2019 20:24

#	Program:	/corina/corina34_cracker 3.40 0067  02.08.2006

@<TRIPOS>MOLECULE
ASD02508467
  35   38    0    0    0
SMALL
NO_CHARGES


@<TRIPOS>ATOM
   1 N1            -0.0201     1.3277     0.0702 N.2     
   2 C2             0.0063    -0.0072    -0.0613 C.2     
   3 C3             1.2929    -0.3996    -0.1132 C.2     
   4 N4             2.0584     0.7340    -0.0098 N.pl3   
   5 C5             1.2021     1.7836     0.1023 C.2     
   6 C6             3.4552     0.7977    -0.0176 C.ar    
   7 C7             4.1106     1.6176    -0.9307 C.ar    
   8 N8             4.1577     0.0811     0.8485 N.ar    
   9 C9             5.4780     0.1433     0.8386 C.ar    
  10 C10            6.1268     0.9547    -0.0737 C.ar    
  11 N11            5.4292     1.6752    -0.9353 N.ar    
  12 S12            1.8809    -2.0520    -0.2817 S.o2    
  13 N13            1.8826    -2.4093    -1.8987 N.am    
  14 C14            2.7337    -1.7171    -2.7672 C.ar    
  15 C15            4.0591    -1.5015    -2.4150 C.ar    
  16 C16            4.9010    -0.8178    -3.2721 C.ar    
  17 C17            4.4251    -0.3456    -4.4839 C.ar    
  18 C18            3.0955    -0.5603    -4.8402 C.ar    
  19 C19            2.2543    -1.2506    -3.9840 C.ar    
  20 O20            3.2416    -2.0375     0.1274 O.2     
  21 O21            0.8994    -2.8898     0.3133 O.2     
  22 O22            5.0395     0.3461    -5.4893 O.3     
  23 C23            4.1842     0.1952    -6.6378 C.3     
  24 O24            2.8773    -0.0035    -6.0674 O.3     
  25 H25           -0.8560    -0.6552    -0.1156 H       
  26 H26            1.4857     2.8210     0.2007 H       
  27 H27            3.5411     2.2059    -1.6350 H       
  28 H28            6.0507    -0.4401     1.5443 H       
  29 H29            7.2057     1.0038    -0.0792 H       
  30 H30            1.2935    -3.0984    -2.2438 H       
  31 H31            4.4327    -1.8680    -1.4703 H       
  32 H32            5.9318    -0.6513    -2.9961 H       
  33 H33            1.2232    -1.4181    -4.2584 H       
  34 H34            4.2020     1.0971    -7.2496 H       
  35 H35            4.4818    -0.6733    -7.2254 H       
@<TRIPOS>BOND
   1    1    2 1
   2    1    5 2
   3    2    3 2
   4    2   25 1
   5    3    4 1
   6    3   12 1
   7    4    5 1
   8    4    6 1
   9    5   26 1
  10    6    7 ar
  11    6    8 ar
  12    7   11 ar
  13    7   27 1
  14    8    9 ar
  15    9   10 ar
  16    9   28 1
  17   10   11 ar
  18   10   29 1
  19   12   13 am
  20   12   20 2
  21   12   21 2
  22   13   14 1
  23   13   30 1
  24   14   15 ar
  25   14   19 ar
  26   15   16 ar
  27   15   31 1
  28   16   17 ar
  29   16   32 1
  30   17   18 ar
  31   17   22 1
  32   18   19 ar
  33   18   24 1
  34   19   33 1
  35   22   23 1
  36   23   24 1
  37   23   34 1
  38   23   35 1

#	End of record

