#	Name: ASD03331258
#	Creating user name:	WinNT
#	Creation time:	15. 06. 2019 20:38

#	Modifying user name:	WinNT
#	Modification time:	15. 06. 2019 20:38

#	Program:	/corina/corina34_cracker 3.40 0067  02.08.2006

@<TRIPOS>MOLECULE
ASD03331258
  60   63    0    0    0
SMALL
NO_CHARGES


@<TRIPOS>ATOM
   1 N1            -0.1942     1.4008     0.4786 N.am    
   2 C2            -0.0918     0.0705     1.0976 C.3     
   3 C3             0.5133    -0.8970     0.0748 C.3     
   4 N4             1.7795    -0.3459    -0.4264 N.3     
   5 C5             1.5642     0.9200    -1.1400 C.3     
   6 C6             1.0022     1.9619    -0.1670 C.3     
   7 C7            -1.3552     2.0850     0.4976 C.2     
   8 O8            -2.3600     1.5652     0.9432 O.2     
   9 N9            -1.4024     3.3455     0.0228 N.am    
  10 C10           -2.6323     4.0021    -0.0979 C.ar    
  11 C11           -2.7101     5.3750     0.0962 C.ar    
  12 C12           -3.9253     6.0202    -0.0241 C.ar    
  13 C13           -5.0638     5.3006    -0.3374 C.ar    
  14 C14           -4.9897     3.9334    -0.5313 C.ar    
  15 C15           -3.7765     3.2831    -0.4176 C.ar    
  16 C16            2.4765    -1.3186    -1.2784 C.3     
  17 C17            3.6345    -0.6440    -1.9674 C.ar    
  18 C18            4.8797    -0.6254    -1.3669 C.ar    
  19 C19            5.9444    -0.0067    -1.9963 C.ar    
  20 C20            5.7663     0.5939    -3.2272 C.ar    
  21 C21            4.5176     0.5763    -3.8323 C.ar    
  22 C22            3.4523    -0.0495    -3.2011 C.ar    
  23 O23            4.3396     1.1669    -5.0431 O.3     
  24 C24            5.4341     1.6616    -5.6786 C.ar    
  25 C25            6.3145     0.8007    -6.3184 C.ar    
  26 C26            5.6702     3.0288    -5.6939 C.ar    
  27 C27            6.7836     3.5290    -6.3406 C.ar    
  28 C28            7.6624     2.6685    -6.9725 C.ar    
  29 C29            7.4263     1.3061    -6.9637 C.ar    
  30 S30            9.0816     3.3099    -7.7966 S.o2    
  31 C31           10.3734     3.3310    -6.5232 C.3     
  32 O32            9.3778     2.3393    -8.7913 O.2     
  33 O33            8.7111     4.6346    -8.1530 O.2     
  34 H34            0.5513     0.1239     1.9760 H       
  35 H35           -1.0838    -0.2761     1.3871 H       
  36 H36            0.6988    -1.8600     0.5505 H       
  37 H37           -0.1801    -1.0287    -0.7558 H       
  38 H38            2.5119     1.2747    -1.5453 H       
  39 H39            0.8562     0.7629    -1.9537 H       
  40 H40            0.7335     2.8658    -0.7136 H       
  41 H41            1.7504     2.1972     0.5899 H       
  42 H42           -0.5839     3.7975    -0.2352 H       
  43 H43           -1.8213     5.9375     0.3413 H       
  44 H44           -3.9866     7.0878     0.1271 H       
  45 H45           -6.0130     5.8073    -0.4305 H       
  46 H46           -5.8807     3.3742    -0.7759 H       
  47 H47           -3.7185     2.2160    -0.5735 H       
  48 H48            2.8471    -2.1395    -0.6644 H       
  49 H49            1.7853    -1.7076    -2.0261 H       
  50 H50            5.0211    -1.0945    -0.4044 H       
  51 H51            6.9159     0.0070    -1.5247 H       
  52 H52            6.5981     1.0773    -3.7181 H       
  53 H53            2.4795    -0.0646    -3.6699 H       
  54 H54            6.1307    -0.2635    -6.3115 H       
  55 H55            4.9840     3.7013    -5.2008 H       
  56 H56            6.9677     4.5931    -6.3531 H       
  57 H57            8.1145     0.6362    -7.4577 H       
  58 H58           10.5389     2.3180    -6.1567 H       
  59 H59           11.2983     3.7185    -6.9504 H       
  60 H60           10.0592     3.9694    -5.6975 H       
@<TRIPOS>BOND
   1    1    2 1
   2    1    6 1
   3    1    7 am
   4    2    3 1
   5    2   34 1
   6    2   35 1
   7    3    4 1
   8    3   36 1
   9    3   37 1
  10    4    5 1
  11    4   16 1
  12    5    6 1
  13    5   38 1
  14    5   39 1
  15    6   40 1
  16    6   41 1
  17    7    8 2
  18    7    9 am
  19    9   10 1
  20    9   42 1
  21   10   11 ar
  22   10   15 ar
  23   11   12 ar
  24   11   43 1
  25   12   13 ar
  26   12   44 1
  27   13   14 ar
  28   13   45 1
  29   14   15 ar
  30   14   46 1
  31   15   47 1
  32   16   17 1
  33   16   48 1
  34   16   49 1
  35   17   18 ar
  36   17   22 ar
  37   18   19 ar
  38   18   50 1
  39   19   20 ar
  40   19   51 1
  41   20   21 ar
  42   20   52 1
  43   21   22 ar
  44   21   23 1
  45   22   53 1
  46   23   24 1
  47   24   25 ar
  48   24   26 ar
  49   25   29 ar
  50   25   54 1
  51   26   27 ar
  52   26   55 1
  53   27   28 ar
  54   27   56 1
  55   28   29 ar
  56   28   30 1
  57   29   57 1
  58   30   31 1
  59   30   32 2
  60   30   33 2
  61   31   58 1
  62   31   59 1
  63   31   60 1

#	End of record

