#	Name: ASD01230522
#	Creating user name:	WinNT
#	Creation time:	15. 06. 2019 19:14

#	Modifying user name:	WinNT
#	Modification time:	15. 06. 2019 19:14

#	Program:	/corina/corina34_cracker 3.40 0067  02.08.2006

@<TRIPOS>MOLECULE
ASD01230522
  44   47    0    0    0
SMALL
NO_CHARGES


@<TRIPOS>ATOM
   1 S1            -0.0203     1.6432     0.0111 S.o2    
   2 N2             0.0021    -0.0041     0.0020 N.am    
   3 C3             1.0582    -0.7115     0.0766 C.2     
   4 N4             2.3239    -0.2014     0.2156 N.pl3   
   5 C5             2.5547     1.1284     0.7685 C.3     
   6 C6             1.7187     2.1517    -0.0028 C.3     
   7 C7             0.9691    -2.2282     0.0263 C.3     
   8 C8             2.0432    -2.7791     0.9676 C.3     
   9 C9             3.4382    -2.3754     0.5096 C.3     
  10 C10            3.4443    -1.0396    -0.2239 C.3     
  11 C11           -2.8983    -3.5028     1.3293 C.ar    
  12 C12           -2.4546    -3.8154     0.0459 C.ar    
  13 C13           -1.2053    -3.4013    -0.3695 C.ar    
  14 C14           -0.3942    -2.6772     0.4854 C.ar    
  15 C15           -0.8296    -2.3640     1.7604 C.ar    
  16 C16           -2.0770    -2.7730     2.1864 C.ar    
  17 C17           -4.2429    -3.9400     1.7794 C.ar    
  18 C18           -4.3924    -4.6010     2.9984 C.ar    
  19 C19           -5.6467    -5.0055     3.4118 C.ar    
  20 C20           -6.7524    -4.7560     2.6192 C.ar    
  21 C21           -6.6093    -4.1012     1.4094 C.ar    
  22 C22           -5.3615    -3.6868     0.9887 C.ar    
  23 Cl23          -3.0051    -4.9151     3.9936 Cl      
  24 O24           -0.6472     1.9881    -1.2166 O.2     
  25 O25           -0.6237     1.9749     1.2541 O.2     
  26 H26            2.2653     1.1405     1.8193 H       
  27 H27            3.6113     1.3809     0.6793 H       
  28 H28            2.0726     2.2083    -1.0322 H       
  29 H29            1.8152     3.1296     0.4690 H       
  30 H30            1.1525    -2.5769    -0.9900 H       
  31 H31            1.8709    -2.3915     1.9717 H       
  32 H32            1.9753    -3.8668     0.9892 H       
  33 H33            4.0887    -2.3026     1.3812 H       
  34 H34            3.8279    -3.1455    -0.1561 H       
  35 H35            3.3602    -1.2183    -1.2958 H       
  36 H36            4.3816    -0.5221    -0.0194 H       
  37 H37           -3.0870    -4.3811    -0.6223 H       
  38 H38           -0.8604    -3.6431    -1.3640 H       
  39 H39           -0.1920    -1.7987     2.4240 H       
  40 H40           -2.4159    -2.5283     3.1822 H       
  41 H41           -5.7642    -5.5178     4.3553 H       
  42 H42           -7.7314    -5.0740     2.9462 H       
  43 H43           -7.4763    -3.9095     0.7946 H       
  44 H44           -5.2521    -3.1714     0.0460 H       
@<TRIPOS>BOND
   1    1    2 am
   2    1    6 1
   3    1   24 2
   4    1   25 2
   5    2    3 2
   6    3    4 1
   7    3    7 1
   8    4    5 1
   9    4   10 1
  10    5    6 1
  11    5   26 1
  12    5   27 1
  13    6   28 1
  14    6   29 1
  15    7    8 1
  16    7   14 1
  17    7   30 1
  18    8    9 1
  19    8   31 1
  20    8   32 1
  21    9   10 1
  22    9   33 1
  23    9   34 1
  24   10   35 1
  25   10   36 1
  26   11   12 ar
  27   11   16 ar
  28   11   17 1
  29   12   13 ar
  30   12   37 1
  31   13   14 ar
  32   13   38 1
  33   14   15 ar
  34   15   16 ar
  35   15   39 1
  36   16   40 1
  37   17   18 ar
  38   17   22 ar
  39   18   19 ar
  40   18   23 1
  41   19   20 ar
  42   19   41 1
  43   20   21 ar
  44   20   42 1
  45   21   22 ar
  46   21   43 1
  47   22   44 1

#	End of record

