#	Name: ASD00170316
#	Creating user name:	WinNT
#	Creation time:	15. 06. 2019 18:31

#	Modifying user name:	WinNT
#	Modification time:	15. 06. 2019 18:31

#	Program:	/corina/corina34_cracker 3.40 0067  02.08.2006

@<TRIPOS>MOLECULE
ASD00170316
  35   37    0    0    0
SMALL
NO_CHARGES


@<TRIPOS>ATOM
   1 S1             0.1573     1.6245     0.6733 S.3     
   2 N2            -0.1177     0.3149    -0.3763 N.pl3   
   3 C3             1.1097    -0.1392    -0.7264 C.2     
   4 N4             2.1486     0.4585    -0.2377 N.2     
   5 C5             1.9245     1.4943     0.5878 C.2     
   6 N6             2.8184     2.2463     1.1983 N.2     
   7 C7            -1.3529    -0.1883    -0.7911 C.ar    
   8 C8             1.2589    -1.2894    -1.6435 C.ar    
   9 C9            -2.2254     0.6165    -1.5129 C.ar    
  10 C10           -3.4467     0.1154    -1.9222 C.ar    
  11 C11           -3.8005    -1.1874    -1.6128 C.ar    
  12 C12           -2.9328    -1.9905    -0.8934 C.ar    
  13 C13           -1.7089    -1.4970    -0.4873 C.ar    
  14 C14            0.2901    -1.5402    -2.6164 C.ar    
  15 C15            0.4353    -2.6151    -3.4689 C.ar    
  16 C16            1.5379    -3.4438    -3.3608 C.ar    
  17 C17            2.5019    -3.2006    -2.3985 C.ar    
  18 C18            2.3719    -2.1255    -1.5438 C.ar    
  19 C19            4.2475     1.9873     1.0063 C.3     
  20 C20            4.8898     3.1772     0.2905 C.3     
  21 Cl21          -4.5381     1.1198    -2.8243 Cl      
  22 Cl22          -5.3354    -1.8139    -2.1278 Cl      
  23 H23           -1.9498     1.6326    -1.7536 H       
  24 H24           -3.2117    -3.0058    -0.6530 H       
  25 H25           -1.0326    -2.1246     0.0740 H       
  26 H26           -0.5714    -0.8945    -2.7013 H       
  27 H27           -0.3136    -2.8103    -4.2222 H       
  28 H28            1.6465    -4.2843    -4.0302 H       
  29 H29            3.3601    -3.8515    -2.3190 H       
  30 H30            3.1250    -1.9368    -0.7930 H       
  31 H31            4.7246     1.8460     1.9761 H       
  32 H32            4.3760     1.0882     0.4037 H       
  33 H33            4.4127     3.3185    -0.6793 H       
  34 H34            4.7613     4.0763     0.8931 H       
  35 H35            5.9531     2.9845     0.1476 H       
@<TRIPOS>BOND
   1    1    2 1
   2    1    5 1
   3    2    3 1
   4    2    7 1
   5    3    4 2
   6    3    8 1
   7    4    5 1
   8    5    6 2
   9    6   19 1
  10    7    9 ar
  11    7   13 ar
  12    8   14 ar
  13    8   18 ar
  14    9   10 ar
  15    9   23 1
  16   10   11 ar
  17   10   21 1
  18   11   12 ar
  19   11   22 1
  20   12   13 ar
  21   12   24 1
  22   13   25 1
  23   14   15 ar
  24   14   26 1
  25   15   16 ar
  26   15   27 1
  27   16   17 ar
  28   16   28 1
  29   17   18 ar
  30   17   29 1
  31   18   30 1
  32   19   20 1
  33   19   31 1
  34   19   32 1
  35   20   33 1
  36   20   34 1
  37   20   35 1

#	End of record

