#	Name: ASD01940162
#	Creating user name:	WinNT
#	Creation time:	15. 06. 2019 20:11

#	Modifying user name:	WinNT
#	Modification time:	15. 06. 2019 20:11

#	Program:	/corina/corina34_cracker 3.40 0067  02.08.2006

@<TRIPOS>MOLECULE
ASD01940162
  43   45    0    0    0
SMALL
NO_CHARGES


@<TRIPOS>ATOM
   1 C1             1.1642     2.1179    -1.5119 C.3     
   2 C2             1.0578     2.9871    -0.2572 C.3     
   3 C3             0.8923     1.4697    -0.1529 C.3     
   4 S4            -0.2075     2.1861    -2.6969 S.o2    
   5 O5             0.2824     2.1404    -4.0300 O.2     
   6 O6            -1.2709     1.3417    -2.2778 O.2     
   7 N7            -0.8155     3.7182    -2.5375 N.am    
   8 C8             2.5542     1.9245    -2.1214 C.3     
   9 C9             2.4158     1.3745    -3.5424 C.3     
  10 O10            3.7090     1.0458    -4.0540 O.3     
  11 C11           -0.0640     4.7061    -1.8873 C.ar    
  12 C12           -0.7068     5.7082    -1.1614 C.ar    
  13 C13            0.0427     6.6840    -0.5189 C.ar    
  14 C14            1.4262     6.6595    -0.6007 C.ar    
  15 C15            2.0619     5.6640    -1.3221 C.ar    
  16 C16            1.3204     4.6857    -1.9597 C.ar    
  17 N17           -2.1060     5.7303    -1.0812 N.pl3   
  18 C18           -2.8103     4.5502    -0.8227 C.ar    
  19 C19           -4.1600     4.6026    -0.4885 C.ar    
  20 C20           -4.8526     3.4337    -0.2342 C.ar    
  21 C21           -4.2044     2.2134    -0.3114 C.ar    
  22 C22           -2.8629     2.1592    -0.6429 C.ar    
  23 C23           -2.1659     3.3233    -0.9044 C.ar    
  24 I24           -5.2577     0.4443     0.0754 I       
  25 F25           -4.7925     5.7940    -0.4123 F       
  26 F26            2.1555     7.6093     0.0247 F       
  27 F27           -0.5758     7.6572     0.1852 F       
  28 H28            1.9780     3.4211     0.1339 H       
  29 H29            0.1635     3.5999    -0.1439 H       
  30 H30           -0.1109     1.0841     0.0290 H       
  31 H31            1.7036     0.9054     0.3068 H       
  32 H32           -1.6919     3.9317    -2.8942 H       
  33 H33            3.0743     2.8819    -2.1514 H       
  34 H34            3.1229     1.2210    -1.5133 H       
  35 H35            1.7932     0.4800    -3.5268 H       
  36 H36            1.9536     2.1280    -4.1802 H       
  37 H37            3.6921     0.6202    -4.9221 H       
  38 H38            3.1400     5.6486    -1.3841 H       
  39 H39            1.8201     3.9078    -2.5177 H       
  40 H40           -2.5857     6.5642    -1.2050 H       
  41 H41           -5.9003     3.4727     0.0252 H       
  42 H42           -2.3602     1.2051    -0.7015 H       
  43 H43           -1.1194     3.2791    -1.1676 H       
@<TRIPOS>BOND
   1    1    2 1
   2    1    3 1
   3    1    4 1
   4    1    8 1
   5    2    3 1
   6    2   28 1
   7    2   29 1
   8    3   30 1
   9    3   31 1
  10    4    5 2
  11    4    6 2
  12    4    7 am
  13    7   11 1
  14    7   32 1
  15    8    9 1
  16    8   33 1
  17    8   34 1
  18    9   10 1
  19    9   35 1
  20    9   36 1
  21   10   37 1
  22   11   12 ar
  23   11   16 ar
  24   12   13 ar
  25   12   17 1
  26   13   14 ar
  27   13   27 1
  28   14   15 ar
  29   14   26 1
  30   15   16 ar
  31   15   38 1
  32   16   39 1
  33   17   18 1
  34   17   40 1
  35   18   19 ar
  36   18   23 ar
  37   19   20 ar
  38   19   25 1
  39   20   21 ar
  40   20   41 1
  41   21   22 ar
  42   21   24 1
  43   22   23 ar
  44   22   42 1
  45   23   43 1

#	End of record

