#	Name: ASD03090693
#	Creating user name:	WinNT
#	Creation time:	15. 06. 2019 20:29

#	Modifying user name:	WinNT
#	Modification time:	15. 06. 2019 20:29

#	Program:	/corina/corina34_cracker 3.40 0067  02.08.2006

@<TRIPOS>MOLECULE
ASD03090693
  31   32    0    0    0
SMALL
NO_CHARGES


@<TRIPOS>ATOM
   1 N1            -0.0162     1.3436     0.0094 N.am    
   2 C2            -0.1434     0.0021     0.0365 C.2     
   3 O3             0.8430    -0.7039    -0.0461 O.2     
   4 N4            -1.3641    -0.5568     0.1550 N.am    
   5 S5            -0.1985    -3.0493     0.0770 S.3     
   6 C6            -1.4953    -1.9402     0.1829 C.2     
   7 N7            -2.6187    -2.5774     0.2937 N.2     
   8 C8            -2.5591    -3.8962     0.3039 C.2     
   9 C9            -1.3270    -4.3967     0.1968 C.2     
  10 C10           -3.7836    -4.7660     0.4276 C.3     
  11 F11           -4.9294    -3.9636     0.4080 F       
  12 F12           -3.8262    -5.6661    -0.6425 F       
  13 F13           -3.7318    -5.4756     1.6322 F       
  14 C14            1.2581     1.9266     0.0080 C.ar    
  15 C15            1.4789     3.1118    -0.6810 C.ar    
  16 C16            2.7346     3.6861    -0.6815 C.ar    
  17 C17            3.7757     3.0789     0.0057 C.ar    
  18 C18            3.5559     1.8948     0.6937 C.ar    
  19 C19            2.2989     1.3226     0.7002 C.ar    
  20 C20            0.3484     3.7710    -1.4283 C.3     
  21 O21            5.0121     3.6447     0.0043 O.3     
  22 H22           -0.8066     1.9053    -0.0131 H       
  23 H23           -2.1511     0.0064     0.2209 H       
  24 H24           -1.0670    -5.4449     0.1849 H       
  25 H25            2.9064     4.6079    -1.2174 H       
  26 H26            4.3669     1.4225     1.2281 H       
  27 H27            2.1267     0.4031     1.2399 H       
  28 H28           -0.1690     4.4652    -0.7661 H       
  29 H29            0.7472     4.3147    -2.2847 H       
  30 H30           -0.3508     3.0099    -1.7746 H       
  31 H31            5.1600     4.2685     0.7283 H       
@<TRIPOS>BOND
   1    1    2 am
   2    1   14 1
   3    1   22 1
   4    2    3 2
   5    2    4 am
   6    4    6 1
   7    4   23 1
   8    5    6 1
   9    5    9 1
  10    6    7 2
  11    7    8 1
  12    8    9 2
  13    8   10 1
  14    9   24 1
  15   10   11 1
  16   10   12 1
  17   10   13 1
  18   14   15 ar
  19   14   19 ar
  20   15   16 ar
  21   15   20 1
  22   16   17 ar
  23   16   25 1
  24   17   18 ar
  25   17   21 1
  26   18   19 ar
  27   18   26 1
  28   19   27 1
  29   20   28 1
  30   20   29 1
  31   20   30 1
  32   21   31 1

#	End of record

