#	Name: ASD01911785
#	Creating user name:	WinNT
#	Creation time:	15. 06. 2019 19:58

#	Modifying user name:	WinNT
#	Modification time:	15. 06. 2019 19:58

#	Program:	/corina/corina34_cracker 3.40 0067  02.08.2006

@<TRIPOS>MOLECULE
ASD01911785
  39   41    0    0    0
SMALL
NO_CHARGES


@<TRIPOS>ATOM
   1 C1            -0.0184     1.5028     0.0103 C.3     
   2 C2             0.0021    -0.0041     0.0020 C.2     
   3 C3            -1.0523    -0.7206    -0.6028 C.2     
   4 C4            -1.1593    -2.0887    -0.6812 C.2     
   5 S5            -2.4680    -0.0192    -1.3841 S.3     
   6 C6            -3.0656    -1.6351    -1.7493 C.2     
   7 N7            -2.2230    -2.5276    -1.2876 N.2     
   8 C8            -4.2857    -1.9291    -2.4388 C.1     
   9 C9            -5.2860    -2.1701    -3.0041 C.1     
  10 C10           -6.5061    -2.4641    -3.6937 C.ar    
  11 C11           -6.8788    -3.7913    -3.9273 C.ar    
  12 C12           -8.0556    -4.0671    -4.5917 C.ar    
  13 C13           -8.8670    -3.0346    -5.0273 C.ar    
  14 C14           -8.5051    -1.7168    -4.7999 C.ar    
  15 C15           -7.3336    -1.4253    -4.1315 C.ar    
  16 C16           -0.7345     1.9962     1.2691 C.3     
  17 C17            1.4170     2.0324    -0.0006 C.3     
  18 C18            1.3963     3.5622     0.0079 C.3     
  19 C19            0.6801     4.0556     1.2667 C.3     
  20 C20           -0.7552     3.5260     1.2775 C.3     
  21 O21            0.9263    -0.6018     0.5160 O.2     
  22 O22            1.3713     3.5822     2.4244 O.3     
  23 Cl23          -9.5311    -0.4294    -5.3511 Cl      
  24 H24           -0.5455     1.8639    -0.8728 H       
  25 H25           -0.4132    -2.7519    -0.2690 H       
  26 H26           -6.2465    -4.5987    -3.5887 H       
  27 H27           -8.3443    -5.0919    -4.7726 H       
  28 H28           -9.7869    -3.2570    -5.5476 H       
  29 H29           -7.0522    -0.3977    -3.9547 H       
  30 H30           -1.7571     1.6189     1.2768 H       
  31 H31           -0.2073     1.6351     2.1522 H       
  32 H32            1.9442     1.6713     0.8825 H       
  33 H33            1.9272     1.6808    -0.8974 H       
  34 H34            2.4189     3.9395     0.0001 H       
  35 H35            0.8691     3.9233    -0.8752 H       
  36 H36            0.6654     5.1455     1.2727 H       
  37 H37           -1.2824     3.8871     0.3945 H       
  38 H38           -1.2654     3.8775     2.1743 H       
  39 H39            0.9719     3.8576     3.2609 H       
@<TRIPOS>BOND
   1    1    2 1
   2    1   17 1
   3    1   16 1
   4    1   24 1
   5    2    3 1
   6    2   21 2
   7    3    4 2
   8    3    5 1
   9    4    7 1
  10    4   25 1
  11    5    6 1
  12    6    7 2
  13    6    8 1
  14    8    9 3
  15    9   10 1
  16   10   11 ar
  17   10   15 ar
  18   11   12 ar
  19   11   26 1
  20   12   13 ar
  21   12   27 1
  22   13   14 ar
  23   13   28 1
  24   14   15 ar
  25   14   23 1
  26   15   29 1
  27   16   20 1
  28   16   30 1
  29   16   31 1
  30   17   18 1
  31   17   32 1
  32   17   33 1
  33   18   19 1
  34   18   34 1
  35   18   35 1
  36   19   20 1
  37   19   22 1
  38   19   36 1
  39   20   37 1
  40   20   38 1
  41   22   39 1

#	End of record

