#	Name: ASD01911543
#	Creating user name:	WinNT
#	Creation time:	15. 06. 2019 19:58

#	Modifying user name:	WinNT
#	Modification time:	15. 06. 2019 19:58

#	Program:	/corina/corina34_cracker 3.40 0067  02.08.2006

@<TRIPOS>MOLECULE
ASD01911543
  34   36    0    0    0
SMALL
NO_CHARGES


@<TRIPOS>ATOM
   1 C1            -0.0144     1.2130     0.0087 C.2     
   2 O2            -0.0078    -0.0041    -0.0077 O.2     
   3 S3             1.4265     3.7026    -0.1121 S.3     
   4 C4             3.1777     3.5293    -0.0392 C.2     
   5 N5             3.4861     2.2600     0.0589 N.2     
   6 C6             2.5025     1.4058     0.0835 C.2     
   7 C7             1.2503     1.9526     0.0023 C.2     
   8 C8             4.1182     4.6084    -0.0808 C.1     
   9 C9             4.8893     5.4930    -0.1149 C.1     
  10 C10            5.8298     6.5720    -0.1564 C.ar    
  11 C11            7.2019     6.3111    -0.0907 C.ar    
  12 C12            8.1014     7.3555    -0.1312 C.ar    
  13 C13            7.6491     8.6592    -0.2367 C.ar    
  14 C14            6.2926     8.9256    -0.3018 C.ar    
  15 C15            5.3809     7.8914    -0.2687 C.ar    
  16 N16           -1.1852     1.8803     0.0272 N.am    
  17 C17           -1.3393     3.3371     0.1514 C.3     
  18 C18           -2.8526     3.6395     0.1519 C.3     
  19 C19           -3.4764     2.2904     0.5972 C.3     
  20 C20           -2.5233     1.2709    -0.0802 C.3     
  21 F21           -3.2884     3.9867    -1.1313 F       
  22 H22            2.6640     0.3408     0.1621 H       
  23 H23            7.5563     5.2942    -0.0080 H       
  24 H24            9.1615     7.1556    -0.0802 H       
  25 H25            8.3585     9.4730    -0.2680 H       
  26 H26            5.9472     9.9456    -0.3833 H       
  27 H27            4.3228     8.1005    -0.3245 H       
  28 H28           -0.8927     3.6788     1.0852 H       
  29 H29           -0.8623     3.8337    -0.6936 H       
  30 H30           -3.0881     4.4279     0.8668 H       
  31 H31           -3.4547     2.1892     1.6823 H       
  32 H32           -4.4924     2.1853     0.2168 H       
  33 H33           -2.7942     1.1324    -1.1269 H       
  34 H34           -2.5498     0.3182     0.4486 H       
@<TRIPOS>BOND
   1    1    2 2
   2    1    7 1
   3    1   16 am
   4    3    4 1
   5    3    7 1
   6    4    5 2
   7    4    8 1
   8    5    6 1
   9    6    7 2
  10    6   22 1
  11    8    9 3
  12    9   10 1
  13   10   11 ar
  14   10   15 ar
  15   11   12 ar
  16   11   23 1
  17   12   13 ar
  18   12   24 1
  19   13   14 ar
  20   13   25 1
  21   14   15 ar
  22   14   26 1
  23   15   27 1
  24   16   17 1
  25   16   20 1
  26   17   18 1
  27   17   28 1
  28   17   29 1
  29   18   19 1
  30   18   21 1
  31   18   30 1
  32   19   20 1
  33   19   31 1
  34   19   32 1
  35   20   33 1
  36   20   34 1

#	End of record

