#	Name: ASD05143044
#	Creating user name:	WinNT
#	Creation time:	15. 06. 2019 20:57

#	Modifying user name:	WinNT
#	Modification time:	15. 06. 2019 20:57

#	Program:	/corina/corina34_cracker 3.40 0067  02.08.2006

@<TRIPOS>MOLECULE
ASD05143044
 144  147    0    0    0
SMALL
NO_CHARGES


@<TRIPOS>ATOM
   1 C1            -1.8616     2.6786     4.9380 C.2     
   2 C2            -1.3115     1.5826     5.8139 C.3     
   3 N3            -1.0259     3.4303     4.1943 N.am    
   4 O4            -3.0568     2.8810     4.8984 O.2     
   5 C5            -1.5606     4.4958     3.3428 C.3     
   6 C6            -2.5265     3.8946     2.3197 C.3     
   7 C7            -2.2928     5.5001     4.1951 C.2     
   8 C8            -1.7574     2.9690     1.3749 C.3     
   9 C9            -2.7232     2.3679     0.3518 C.3     
  10 N10           -1.9869     1.4816    -0.5529 N.pl3   
  11 C11           -2.6501     0.8242    -1.5619 C.2     
  12 N12           -4.0044     0.9986    -1.7219 N.pl3   
  13 N13           -1.9950     0.0357    -2.3668 N.2     
  14 O14           -2.6791     5.1892     5.3019 O.2     
  15 N15           -2.5182     6.7438     3.7273 N.am    
  16 C16           -3.2300     7.7202     4.5558 C.3     
  17 C17           -2.2240     8.6899     5.1792 C.3     
  18 C18           -1.0531     7.9017     5.7691 C.3     
  19 C19           -0.0043     7.6895     4.7081 C.2     
  20 O20           -0.3172     7.3247     3.5946 O.2     
  21 N21            1.3057     7.9161     5.0235 N.am    
  22 C22            2.2721     7.6782     3.9272 C.3     
  23 C23            2.4200     8.9670     3.1160 C.3     
  24 C24            2.9556     8.6331     1.7222 C.3     
  25 C25            3.9356     9.7207     1.2777 C.3     
  26 N26            3.7756     9.9419    -0.1736 N.am    
  27 C27            5.3466     9.2787     1.5686 C.2     
  28 N28            5.8439     9.3897     2.8164 N.am    
  29 O29            6.0348     8.8230     0.6800 O.2     
  30 C30            2.9658    10.9702    -0.5464 C.2     
  31 O31            2.4216    11.6580     0.2913 O.2     
  32 C32            2.7542    11.2439    -2.0131 C.3     
  33 N33            1.5645    12.1129    -2.1636 N.am    
  34 C34            3.9835    11.9519    -2.5863 C.3     
  35 C35            0.4383    11.4893    -2.6211 C.2     
  36 O36            0.4506    10.3049    -2.8819 O.2     
  37 C37           -0.8196    12.3008    -2.7951 C.3     
  38 N38           -1.9862    11.4033    -2.6784 N.am    
  39 C39           -0.8898    13.3767    -1.7096 C.3     
  40 C40           -3.0100    11.8343    -1.8913 C.2     
  41 O41           -2.9402    12.9026    -1.3214 O.2     
  42 C42           -4.2315    10.9650    -1.7388 C.3     
  43 C43            3.8210    12.1139    -4.0757 C.2     
  44 C44            3.1167    13.1994    -4.7624 C.ar    
  45 C45            3.2294    12.9269    -6.1378 C.ar    
  46 N46            3.9503    11.7606    -6.2632 N.pl3   
  47 C47            4.2990    11.2940    -5.0250 C.2     
  48 C48            2.4276    14.3347    -4.3312 C.ar    
  49 C49            1.8656    15.1764    -5.2490 C.ar    
  50 C50            1.9736    14.9117    -6.6076 C.ar    
  51 C51            2.6496    13.7979    -7.0549 C.ar    
  52 N52           -4.7008    11.0478    -0.3368 N.am    
  53 C53           -3.8754     9.5158    -2.0761 C.3     
  54 C54           -5.1149     8.6623    -1.9964 C.ar    
  55 C55           -6.1056     8.7904    -2.9533 C.ar    
  56 C56           -7.2433     8.0061    -2.8798 C.ar    
  57 C57           -7.3890     7.0954    -1.8506 C.ar    
  58 C58           -6.3984     6.9679    -0.8945 C.ar    
  59 C59           -5.2595     7.7474    -0.9704 C.ar    
  60 C60           -4.2048     8.4887     3.7011 C.2     
  61 N61           -3.7253     9.3070     2.7246 N.am    
  62 O62           -5.3993     8.3795     3.8805 O.2     
  63 C63           -4.7276    10.0342     1.9203 C.3     
  64 C64           -4.8383    11.4759     2.4203 C.3     
  65 C65           -4.2888    10.0320     0.4786 C.2     
  66 O66           -3.6033    12.1566     2.1886 O.3     
  67 O67           -3.5828     9.1441     0.0497 O.2     
  68 C68           -0.7675    12.7207    -0.3328 C.3     
  69 C69           -0.9432    13.7819     0.7553 C.3     
  70 N70           -0.8261    13.1538     2.0736 N.pl3   
  71 C71           -0.9498    13.9155     3.2114 C.2     
  72 N72           -1.1835    15.2667     3.1121 N.pl3   
  73 N73           -0.8456    13.3567     4.3843 N.2     
  74 Cl74          -5.9220     9.9350    -4.2456 Cl      
  75 C75           -5.1459    11.4737     3.9191 C.3     
  76 H76           -0.2265     1.5486     5.7152 H       
  77 H77           -1.5758     1.7805     6.8527 H       
  78 H78           -1.7343     0.6258     5.5074 H       
  79 H79           -0.0704     3.2658     4.2229 H       
  80 H80           -0.7409     4.9903     2.8218 H       
  81 H81           -3.2973     3.3250     2.8388 H       
  82 H82           -2.9916     4.6955     1.7449 H       
  83 H83           -0.9866     3.5387     0.8559 H       
  84 H84           -1.2923     2.1682     1.9497 H       
  85 H85           -3.4941     1.7982     0.8708 H       
  86 H86           -3.1884     3.1687    -0.2230 H       
  87 H87           -1.0313     1.3586    -0.4400 H       
  88 H88           -4.4920     1.5854    -1.1229 H       
  89 H89           -4.4724     0.5348    -2.4338 H       
  90 H90           -2.4629    -0.4281    -3.0787 H       
  91 H91           -2.2093     6.9925     2.8421 H       
  92 H92           -3.7711     7.2002     5.3463 H       
  93 H93           -1.8539     9.3714     4.4132 H       
  94 H94           -2.7118     9.2614     5.9688 H       
  95 H95           -0.6215     8.4597     6.6001 H       
  96 H96           -1.4089     6.9353     6.1265 H       
  97 H97            1.5833     8.2126     5.9043 H       
  98 H98            3.2383     7.3968     4.3461 H       
  99 H99            1.9043     6.8803     3.2821 H       
 100 H100           1.4485     9.4527     3.0252 H       
 101 H101           3.1155     9.6369     3.6217 H       
 102 H102           3.4685     7.6717     1.7509 H       
 103 H103           2.1261     8.5813     1.0171 H       
 104 H104           3.7226    10.6456     1.8137 H       
 105 H105           4.2242     9.3830    -0.8273 H       
 106 H106           5.2935     9.7542     3.5271 H       
 107 H107           6.7521     9.1052     3.0037 H       
 108 H108           2.5903    10.3043    -2.5409 H       
 109 H109           1.5836    13.0594    -1.9522 H       
 110 H110           4.0865    12.9332    -2.1231 H       
 111 H111           4.8739    11.3578    -2.3805 H       
 112 H112          -0.8176    12.7712    -3.7784 H       
 113 H113          -2.0212    10.5502    -3.1386 H       
 114 H114          -0.0740    14.0861    -1.8478 H       
 115 H115          -1.8429    13.9010    -1.7788 H       
 116 H116          -5.0164    11.3165    -2.4085 H       
 117 H117           4.1801    11.3352    -7.1040 H       
 118 H118           4.8680    10.3951    -4.8388 H       
 119 H119           2.3390    14.5466    -3.2759 H       
 120 H120           1.3328    16.0544    -4.9151 H       
 121 H121           1.5237    15.5862    -7.3210 H       
 122 H122           2.7284    13.6009    -8.1138 H       
 123 H123          -5.2614    11.7729    -0.0194 H       
 124 H124          -3.4654     9.4677    -3.0849 H       
 125 H125          -3.1352     9.1486    -1.3652 H       
 126 H126          -8.0172     8.1059    -3.6264 H       
 127 H127          -8.2771     6.4835    -1.7929 H       
 128 H128          -6.5130     6.2563    -0.0902 H       
 129 H129          -4.4859     7.6471    -0.2234 H       
 130 H130          -2.7737     9.4075     2.5654 H       
 131 H131          -5.6956     9.5411     2.0102 H       
 132 H132          -5.6399    11.9854     1.8856 H       
 133 H133          -3.3449    12.1965     1.2576 H       
 134 H134          -1.5383    11.9577    -0.2240 H       
 135 H135           0.2157    12.2602    -0.2357 H       
 136 H136          -0.1724    14.5449     0.6465 H       
 137 H137          -1.9264    14.2424     0.6583 H       
 138 H138          -0.6612    12.2005     2.1437 H       
 139 H139          -1.2611    15.6826     2.2392 H       
 140 H140          -1.2709    15.8041     3.9148 H       
 141 H141          -0.9329    13.8941     5.1871 H       
 142 H142          -4.3443    10.9641     4.4538 H       
 143 H143          -5.2247    12.5008     4.2753 H       
 144 H144          -6.0879    10.9545     4.0959 H       
@<TRIPOS>BOND
   1    1    2 1
   2    1    3 am
   3    1    4 2
   4    2   76 1
   5    2   77 1
   6    2   78 1
   7    3    5 1
   8    3   79 1
   9    5    6 1
  10    5    7 1
  11    5   80 1
  12    6    8 1
  13    6   81 1
  14    6   82 1
  15    7   14 2
  16    7   15 am
  17    8    9 1
  18    8   83 1
  19    8   84 1
  20    9   10 1
  21    9   85 1
  22    9   86 1
  23   10   11 1
  24   10   87 1
  25   11   12 1
  26   11   13 2
  27   12   88 1
  28   12   89 1
  29   13   90 1
  30   15   16 1
  31   15   91 1
  32   16   17 1
  33   16   60 1
  34   16   92 1
  35   17   18 1
  36   17   93 1
  37   17   94 1
  38   18   19 1
  39   18   95 1
  40   18   96 1
  41   19   20 2
  42   19   21 am
  43   21   22 1
  44   21   97 1
  45   22   23 1
  46   22   98 1
  47   22   99 1
  48   23   24 1
  49   23  100 1
  50   23  101 1
  51   24   25 1
  52   24  102 1
  53   24  103 1
  54   25   26 1
  55   25   27 1
  56   25  104 1
  57   26   30 am
  58   26  105 1
  59   27   28 am
  60   27   29 2
  61   28  106 1
  62   28  107 1
  63   30   31 2
  64   30   32 1
  65   32   33 1
  66   32   34 1
  67   32  108 1
  68   33   35 am
  69   33  109 1
  70   34   43 1
  71   34  110 1
  72   34  111 1
  73   35   36 2
  74   35   37 1
  75   37   38 1
  76   37   39 1
  77   37  112 1
  78   38   40 am
  79   38  113 1
  80   39   68 1
  81   39  114 1
  82   39  115 1
  83   40   41 2
  84   40   42 1
  85   42   52 1
  86   42   53 1
  87   42  116 1
  88   43   44 1
  89   43   47 2
  90   44   45 ar
  91   44   48 ar
  92   45   46 1
  93   45   51 ar
  94   46   47 1
  95   46  117 1
  96   47  118 1
  97   48   49 ar
  98   48  119 1
  99   49   50 ar
 100   49  120 1
 101   50   51 ar
 102   50  121 1
 103   51  122 1
 104   52   65 am
 105   52  123 1
 106   53   54 1
 107   53  124 1
 108   53  125 1
 109   54   55 ar
 110   54   59 ar
 111   55   56 ar
 112   55   74 1
 113   56   57 ar
 114   56  126 1
 115   57   58 ar
 116   57  127 1
 117   58   59 ar
 118   58  128 1
 119   59  129 1
 120   60   61 am
 121   60   62 2
 122   61   63 1
 123   61  130 1
 124   63   64 1
 125   63   65 1
 126   63  131 1
 127   64   66 1
 128   64   75 1
 129   64  132 1
 130   65   67 2
 131   66  133 1
 132   68   69 1
 133   68  134 1
 134   68  135 1
 135   69   70 1
 136   69  136 1
 137   69  137 1
 138   70   71 1
 139   70  138 1
 140   71   72 1
 141   71   73 2
 142   72  139 1
 143   72  140 1
 144   73  141 1
 145   75  142 1
 146   75  143 1
 147   75  144 1

#	End of record

