#	Name: ASD01708019
#	Creating user name:	WinNT
#	Creation time:	15. 06. 2019 19:22

#	Modifying user name:	WinNT
#	Modification time:	15. 06. 2019 19:22

#	Program:	/corina/corina34_cracker 3.40 0067  02.08.2006

@<TRIPOS>MOLECULE
ASD01708019
  65   69    0    0    0
SMALL
NO_CHARGES


@<TRIPOS>ATOM
   1 C1            -0.0228     1.3550    -0.1117 C.ar    
   2 C2            -0.0021    -0.0088    -0.1241 C.ar    
   3 C3             1.1600     2.0831    -0.0699 C.ar    
   4 C4             2.3772     1.4391    -0.0406 C.ar    
   5 C5             2.4220     0.0500    -0.0525 C.ar    
   6 C6             1.2232    -0.6888    -0.0944 C.ar    
   7 N7             3.4412    -0.8739    -0.0317 N.pl3   
   8 C8             2.8600    -2.1144    -0.0604 C.2     
   9 N9             1.5574    -1.9915    -0.0971 N.2     
  10 C10            3.5940    -3.3989    -0.0513 C.2     
  11 N11            2.9183    -4.5605     0.0510 N.am    
  12 O12            4.8064    -3.4066    -0.1360 O.2     
  13 C13            1.4707    -4.5831     0.2859 C.3     
  14 C14            1.1425    -5.6120     1.3394 C.ar    
  15 C15            2.0679    -6.5317     1.7835 C.ar    
  16 C16            3.4846    -6.5773     1.2735 C.3     
  17 C17            3.6023    -5.8583    -0.0749 C.3     
  18 C18           -0.1453    -5.6109     1.8620 C.ar    
  19 C19           -0.5169    -6.5269     2.8220 C.ar    
  20 C20            0.4128    -7.4682     3.2728 C.ar    
  21 C21            1.7038    -7.4633     2.7467 C.ar    
  22 Cl22           2.8646    -8.6294     3.3003 Cl      
  23 Cl23          -2.1284    -6.5116     3.4673 Cl      
  24 C24            0.0304    -8.4603     4.2979 C.2     
  25 N25            0.1949    -8.1762     5.6051 N.am    
  26 O26           -0.4326    -9.5332     3.9626 O.2     
  27 C27           -0.1844    -9.1603     6.6219 C.3     
  28 C28           -1.6543    -9.0271     6.9262 C.2     
  29 O29           -2.2273    -9.8324     7.8346 O.3     
  30 O30           -2.3171    -8.1955     6.3526 O.2     
  31 C31            0.6247    -8.9140     7.8969 C.3     
  32 C32            2.0847    -9.1671     7.6220 C.ar    
  33 C33            2.8949    -8.1355     7.1851 C.ar    
  34 C34            2.6150   -10.4292     7.8122 C.ar    
  35 C35            3.9544   -10.6615     7.5601 C.ar    
  36 C36            4.7630    -9.6316     7.1174 C.ar    
  37 C37            4.2338    -8.3677     6.9330 C.ar    
  38 S38            4.6307   -12.2702     7.8036 S.o2    
  39 O39            6.0074   -12.0355     8.0659 O.2     
  40 O40            3.7881   -12.8598     8.7843 O.2     
  41 C41            4.4196   -13.0970     6.2028 C.3     
  42 H42           -0.9690     1.8749    -0.1391 H       
  43 H43           -0.9281    -0.5637    -0.1563 H       
  44 H44            1.1246     3.1624    -0.0607 H       
  45 H45            3.2927     2.0110    -0.0089 H       
  46 H46            4.3918    -0.6830    -0.0025 H       
  47 H47            1.1429    -3.6002     0.6245 H       
  48 H48            0.9567    -4.8366    -0.6412 H       
  49 H49            4.1418    -6.0955     1.9974 H       
  50 H50            3.7882    -7.6170     1.1514 H       
  51 H51            3.1293    -6.4559    -0.8541 H       
  52 H52            4.6529    -5.6992    -0.3176 H       
  53 H53           -0.8629    -4.8836     1.5120 H       
  54 H54            0.5643    -7.3201     5.8726 H       
  55 H55            0.0201   -10.1643     6.2500 H       
  56 H56           -3.1728    -9.7094     7.9959 H       
  57 H57            0.4894    -7.8816     8.2193 H       
  58 H58            0.2806    -9.5878     8.6815 H       
  59 H59            2.4814    -7.1484     7.0404 H       
  60 H60            1.9832   -11.2339     8.1581 H       
  61 H61            5.8093    -9.8129     6.9208 H       
  62 H62            4.8656    -7.5630     6.5872 H       
  63 H63            4.9566   -12.5420     5.4336 H       
  64 H64            4.8155   -14.1108     6.2626 H       
  65 H65            3.3599   -13.1350     5.9505 H       
@<TRIPOS>BOND
   1    1    2 ar
   2    1    3 ar
   3    1   42 1
   4    2    6 ar
   5    2   43 1
   6    3    4 ar
   7    3   44 1
   8    4    5 ar
   9    4   45 1
  10    5    6 ar
  11    5    7 1
  12    6    9 1
  13    7    8 1
  14    7   46 1
  15    8    9 2
  16    8   10 1
  17   10   11 am
  18   10   12 2
  19   11   13 1
  20   11   17 1
  21   13   14 1
  22   13   47 1
  23   13   48 1
  24   14   15 ar
  25   14   18 ar
  26   15   16 1
  27   15   21 ar
  28   16   17 1
  29   16   49 1
  30   16   50 1
  31   17   51 1
  32   17   52 1
  33   18   19 ar
  34   18   53 1
  35   19   20 ar
  36   19   23 1
  37   20   21 ar
  38   20   24 1
  39   21   22 1
  40   24   25 am
  41   24   26 2
  42   25   27 1
  43   25   54 1
  44   27   28 1
  45   27   31 1
  46   27   55 1
  47   28   29 1
  48   28   30 2
  49   29   56 1
  50   31   32 1
  51   31   57 1
  52   31   58 1
  53   32   33 ar
  54   32   34 ar
  55   33   37 ar
  56   33   59 1
  57   34   35 ar
  58   34   60 1
  59   35   36 ar
  60   35   38 1
  61   36   37 ar
  62   36   61 1
  63   37   62 1
  64   38   39 2
  65   38   40 2
  66   38   41 1
  67   41   63 1
  68   41   64 1
  69   41   65 1

#	End of record

