#	Name: ASD03330861
#	Creating user name:	WinNT
#	Creation time:	15. 06. 2019 20:38

#	Modifying user name:	WinNT
#	Modification time:	15. 06. 2019 20:38

#	Program:	/corina/corina34_cracker 3.40 0067  02.08.2006

@<TRIPOS>MOLECULE
ASD03330861
  61   63    0    0    0
SMALL
NO_CHARGES


@<TRIPOS>ATOM
   1 N1             0.1368     0.9675    -0.0500 N.pl3   
   2 C2             0.0166    -0.3680     0.1771 C.2     
   3 C3             1.1369    -1.2961     0.5680 C.3     
   4 N4             1.9100    -0.6853     1.6607 N.3     
   5 C5             2.9875     0.1586     1.1406 C.3     
   6 C6             2.5720     0.8323    -0.1641 C.3     
   7 C7             1.3701     1.7477     0.0850 C.3     
   8 C8            -1.0945     1.4333    -0.4096 C.2     
   9 N9            -1.9436     0.4324    -0.3881 N.2     
  10 C10           -1.2896    -0.6936    -0.0269 C.2     
  11 C11           -1.8836    -2.0341     0.1194 C.2     
  12 O12           -1.1878    -2.9747     0.4516 O.2     
  13 N13           -3.1981    -2.2178    -0.1148 N.am    
  14 C14            2.4372    -1.7114     2.5701 C.3     
  15 C15           -1.4181     2.8317    -0.7636 C.ar    
  16 C16           -2.1928     3.1092    -1.8962 C.ar    
  17 C17           -2.4918     4.4223    -2.2205 C.ar    
  18 C18           -2.0269     5.4552    -1.4284 C.ar    
  19 C19           -1.2593     5.1856    -0.3066 C.ar    
  20 C20           -0.9579     3.8805     0.0325 C.ar    
  21 O21           -2.6494     2.0941    -2.6749 O.3     
  22 F22           -0.8086     6.2019     0.4610 F       
  23 C23           -5.0228    -3.6497    -0.8287 C.2     
  24 C24           -3.7888    -3.5506     0.0307 C.3     
  25 C25           -4.1669    -3.7838     1.4948 C.3     
  26 C26           -5.2311    -2.7679     1.9147 C.3     
  27 O27           -5.6552    -2.6508    -1.0992 O.2     
  28 N28           -5.4235    -4.8484    -1.2967 N.am    
  29 C29           -6.6806    -4.9613    -2.0404 C.3     
  30 C30           -4.7211    -5.2004     1.6590 C.3     
  31 C31           -2.9265    -3.6162     2.3748 C.3     
  32 H32            0.7223    -2.2471     0.9024 H       
  33 H33            1.7881    -1.4629    -0.2900 H       
  34 H34            3.2301     0.9242     1.8775 H       
  35 H35            3.8692    -0.4566     0.9610 H       
  36 H36            3.4039     1.4228    -0.5479 H       
  37 H37            2.3018     0.0704    -0.8953 H       
  38 H38            1.3711     2.5571    -0.6451 H       
  39 H39            1.4305     2.1628     1.0910 H       
  40 H40           -3.7531    -1.4677    -0.3797 H       
  41 H41            3.0320    -2.4280     2.0037 H       
  42 H42            3.0623    -1.2388     3.3278 H       
  43 H43            1.6086    -2.2287     3.0537 H       
  44 H44           -3.0889     4.6393    -3.0938 H       
  45 H45           -2.2626     6.4773    -1.6853 H       
  46 H46           -0.3633     3.6731     0.9098 H       
  47 H47           -3.5150     1.7539    -2.4101 H       
  48 H48           -3.0664    -4.3043    -0.2825 H       
  49 H49           -6.1148    -2.8873     1.2878 H       
  50 H50           -5.5005    -2.9341     2.9578 H       
  51 H51           -4.8363    -1.7587     1.7978 H       
  52 H52           -4.8796    -5.6363    -1.1410 H       
  53 H53           -6.8361    -5.9990    -2.3357 H       
  54 H54           -7.5070    -4.6356    -1.4088 H       
  55 H55           -6.6340    -4.3334    -2.9302 H       
  56 H56           -3.9419    -5.9250     1.4226 H       
  57 H57           -5.0512    -5.3444     2.6878 H       
  58 H58           -5.5649    -5.3410     0.9836 H       
  59 H59           -2.5317    -2.6070     2.2578 H       
  60 H60           -3.1959    -3.7823     3.4178 H       
  61 H61           -2.1683    -4.3399     2.0756 H       
@<TRIPOS>BOND
   1    1    2 1
   2    1    7 1
   3    1    8 1
   4    2    3 1
   5    2   10 2
   6    3    4 1
   7    3   32 1
   8    3   33 1
   9    4    5 1
  10    4   14 1
  11    5    6 1
  12    5   34 1
  13    5   35 1
  14    6    7 1
  15    6   36 1
  16    6   37 1
  17    7   38 1
  18    7   39 1
  19    8    9 2
  20    8   15 1
  21    9   10 1
  22   10   11 1
  23   11   12 2
  24   11   13 am
  25   13   24 1
  26   13   40 1
  27   14   41 1
  28   14   42 1
  29   14   43 1
  30   15   16 ar
  31   15   20 ar
  32   16   17 ar
  33   16   21 1
  34   17   18 ar
  35   17   44 1
  36   18   19 ar
  37   18   45 1
  38   19   20 ar
  39   19   22 1
  40   20   46 1
  41   21   47 1
  42   23   27 2
  43   23   28 am
  44   23   24 1
  45   24   25 1
  46   24   48 1
  47   25   26 1
  48   25   30 1
  49   25   31 1
  50   26   49 1
  51   26   50 1
  52   26   51 1
  53   28   29 1
  54   28   52 1
  55   29   53 1
  56   29   54 1
  57   29   55 1
  58   30   56 1
  59   30   57 1
  60   30   58 1
  61   31   59 1
  62   31   60 1
  63   31   61 1

#	End of record

