#	Name: ASD08150602
#	Creating user name:	WinNT
#	Creation time:	15. 06. 2019 21:16

#	Modifying user name:	WinNT
#	Modification time:	15. 06. 2019 21:16

#	Program:	/corina/corina34_cracker 3.40 0067  02.08.2006

@<TRIPOS>MOLECULE
ASD08150602
  46   49    0    0    0
SMALL
NO_CHARGES


@<TRIPOS>ATOM
   1 C1             1.2715     3.1795    -2.3652 C.3     
   2 O2             1.8739     2.5474    -3.4964 O.3     
   3 N3             3.6894     1.4604    -0.1068 N.ar    
   4 C4             3.0250     1.8342    -1.1753 C.ar    
   5 C5             2.0090     2.7784    -1.1138 C.ar    
   6 C6             1.6765     3.3507     0.1039 C.ar    
   7 C7             2.4006     2.9391     1.2488 C.ar    
   8 C8             2.1244     3.4701     2.5157 C.ar    
   9 C9             2.8435     3.0479     3.5950 C.ar    
  10 C10            3.8501     2.0950     3.4527 C.ar    
  11 C11            4.1428     1.5599     2.2355 C.ar    
  12 C12            3.4222     1.9707     1.1011 C.ar    
  13 Cl13           2.5011     3.7059     5.1645 Cl      
  14 N14            0.6666     4.2971     0.1978 N.pl3   
  15 C15           -0.6352     3.9006     0.5148 C.ar    
  16 C16           -1.6228     4.8554     0.7224 C.ar    
  17 C17           -2.9084     4.4599     1.0350 C.ar    
  18 C18           -3.2133     3.1153     1.1419 C.ar    
  19 C19           -2.2325     2.1622     0.9364 C.ar    
  20 C20           -0.9462     2.5505     0.6174 C.ar    
  21 C21           -4.6173     2.6876     1.4838 C.3     
  22 C22           -5.4109     2.5089     0.2152 C.ar    
  23 C23           -5.4373     1.2794    -0.4161 C.ar    
  24 C24           -6.1652     1.1155    -1.5798 C.ar    
  25 C25           -6.8670     2.1809    -2.1120 C.ar    
  26 C26           -6.8413     3.4102    -1.4802 C.ar    
  27 C27           -6.1169     3.5729    -0.3141 C.ar    
  28 H28            1.3207     4.2618    -2.4849 H       
  29 H29            0.2293     2.8696    -2.2880 H       
  30 H30            1.4494     2.7610    -4.3387 H       
  31 H31            3.2760     1.3950    -2.1295 H       
  32 H32            1.3468     4.2097     2.6369 H       
  33 H33            4.4070     1.7762     4.3214 H       
  34 H34            4.9258     0.8220     2.1421 H       
  35 H35            0.8642     5.2341     0.0435 H       
  36 H36           -1.3852     5.9057     0.6397 H       
  37 H37           -3.6767     5.2017     1.1965 H       
  38 H38           -2.4738     1.1129     1.0214 H       
  39 H39           -0.1818     1.8056     0.4526 H       
  40 H40           -4.5872     1.7445     2.0294 H       
  41 H41           -5.0890     3.4507     2.1029 H       
  42 H42           -4.8890     0.4470    -0.0004 H       
  43 H43           -6.1853     0.1551    -2.0734 H       
  44 H44           -7.4352     2.0530    -3.0215 H       
  45 H45           -7.3893     4.2427    -1.8961 H       
  46 H46           -6.0998     4.5324     0.1815 H       
@<TRIPOS>BOND
   1    1    2 1
   2    1    5 1
   3    1   28 1
   4    1   29 1
   5    2   30 1
   6    3    4 ar
   7    3   12 ar
   8    4    5 ar
   9    4   31 1
  10    5    6 ar
  11    6    7 ar
  12    6   14 1
  13    7    8 ar
  14    7   12 ar
  15    8    9 ar
  16    8   32 1
  17    9   10 ar
  18    9   13 1
  19   10   11 ar
  20   10   33 1
  21   11   12 ar
  22   11   34 1
  23   14   15 1
  24   14   35 1
  25   15   16 ar
  26   15   20 ar
  27   16   17 ar
  28   16   36 1
  29   17   18 ar
  30   17   37 1
  31   18   19 ar
  32   18   21 1
  33   19   20 ar
  34   19   38 1
  35   20   39 1
  36   21   22 1
  37   21   40 1
  38   21   41 1
  39   22   23 ar
  40   22   27 ar
  41   23   24 ar
  42   23   42 1
  43   24   25 ar
  44   24   43 1
  45   25   26 ar
  46   25   44 1
  47   26   27 ar
  48   26   45 1
  49   27   46 1

#	End of record

