#	Name: ASD01680020
#	Creating user name:	WinNT
#	Creation time:	15. 06. 2019 19:22

#	Modifying user name:	WinNT
#	Modification time:	15. 06. 2019 19:22

#	Program:	/corina/corina34_cracker 3.40 0067  02.08.2006

@<TRIPOS>MOLECULE
ASD01680020
  81   84    0    0    0
SMALL
NO_CHARGES


@<TRIPOS>ATOM
   1 N1             0.2884     2.1224    -1.7020 N.am    
   2 C2             0.1512     0.6995    -2.0625 C.3     
   3 C3             1.4424     0.0292    -1.5301 C.3     
   4 C4             2.5008     1.1299    -1.8050 C.3     
   5 C5             1.7171     2.4346    -1.5500 C.3     
   6 C6            -0.7272     2.9940    -1.5436 C.2     
   7 O7            -1.8666     2.6504    -1.7890 O.2     
   8 O8            -0.4794     4.2456    -1.1136 O.3     
   9 C9            -1.0805     0.0950    -1.3855 C.3     
  10 N10           -1.0040     0.3217     0.0598 N.pl3   
  11 C11           -2.0617    -0.0549     0.8794 C.ar    
  12 C12           -3.1901    -0.6467     0.3205 C.ar    
  13 C13           -4.2350    -1.0165     1.1476 C.ar    
  14 C14           -4.1162    -0.7813     2.5112 C.ar    
  15 C15           -2.9679    -0.1900     2.9977 C.ar    
  16 N16           -1.9841     0.1477     2.1854 N.ar    
  17 O17            3.5984     1.0138    -0.8974 O.3     
  18 C18            4.8454     1.4614    -1.4330 C.3     
  19 C19            5.9263     1.2942    -0.3963 C.2     
  20 N20            7.1940     1.6530    -0.6806 N.am    
  21 O21            5.6555     0.8368     0.6938 O.2     
  22 C22            8.2448     1.4905     0.3271 C.3     
  23 C23            9.5798     1.9698    -0.2463 C.3     
  24 N24            9.4390     3.3466    -0.7266 N.am    
  25 C25           10.2586     3.8114    -1.6902 C.2     
  26 C26           10.1164     5.2009    -2.1749 C.ar    
  27 C27           10.9059     5.6592    -3.2310 C.ar    
  28 C28           10.7680     6.9565    -3.6787 C.ar    
  29 C29            9.8498     7.8033    -3.0831 C.ar    
  30 C30            9.0646     7.3556    -2.0358 C.ar    
  31 C31            9.1883     6.0583    -1.5824 C.ar    
  32 O32           11.1147     3.0881    -2.1609 O.2     
  33 C33           11.9071     4.7387    -3.8802 C.3     
  34 C34           11.1848     3.8039    -4.8525 C.3     
  35 C35           10.6355     1.9180     0.8279 C.2     
  36 O36           11.2111     2.9276     1.1584 O.2     
  37 O37           10.9363     0.7503     1.4176 O.3     
  38 C38           -1.6214     5.1302    -0.9662 C.3     
  39 C39           -1.1535     6.4775    -0.4794 C.ar    
  40 C40           -0.8044     7.4580    -1.3891 C.ar    
  41 C41           -0.3752     8.6939    -0.9425 C.ar    
  42 C42           -0.2957     8.9493     0.4137 C.ar    
  43 C43           -0.6457     7.9691     1.3234 C.ar    
  44 C44           -1.0790     6.7347     0.8768 C.ar    
  45 H45            0.0839     0.5871    -3.1446 H       
  46 H46            1.3632    -0.1788    -0.4631 H       
  47 H47            1.6695    -0.8793    -2.0879 H       
  48 H48            2.8464     1.0832    -2.8378 H       
  49 H49            2.0105     3.1915    -2.2773 H       
  50 H50            1.9127     2.7930    -0.5394 H       
  51 H51           -1.9803     0.5670    -1.7801 H       
  52 H52           -1.1153    -0.9762    -1.5840 H       
  53 H53           -0.2153     0.7346     0.4449 H       
  54 H54           -3.2494    -0.8147    -0.7447 H       
  55 H55           -5.1236    -1.4775     0.7422 H       
  56 H56           -4.9144    -1.0579     3.1840 H       
  57 H57           -2.8713    -0.0053     4.0574 H       
  58 H58            5.0942     0.8722    -2.3156 H       
  59 H59            4.7659     2.5129    -1.7087 H       
  60 H60            7.4105     2.0189    -1.5525 H       
  61 H61            7.9960     2.0798     1.2098 H       
  62 H62            8.3243     0.4390     0.6029 H       
  63 H63            9.8722     1.3242    -1.0745 H       
  64 H64            8.7558     3.9238    -0.3510 H       
  65 H65           11.3782     7.3124    -4.4957 H       
  66 H66            9.7459     8.8183    -3.4371 H       
  67 H67            8.3501     8.0216    -1.5750 H       
  68 H68            8.5716     5.7086    -0.7677 H       
  69 H69           12.6444     5.3293    -4.4240 H       
  70 H70           12.4085     4.1483    -3.1133 H       
  71 H71           10.4475     3.2133    -4.3087 H       
  72 H72           10.6834     4.3943    -5.6194 H       
  73 H73           11.9089     3.1381    -5.3221 H       
  74 H74           11.6201     0.7669     2.1011 H       
  75 H75           -2.1191     5.2446    -1.9292 H       
  76 H76           -2.3192     4.7054    -0.2447 H       
  77 H77           -0.8665     7.2585    -2.4486 H       
  78 H78           -0.1017     9.4597    -1.6532 H       
  79 H79            0.0403     9.9146     0.7626 H       
  80 H80           -0.5832     8.1686     2.3829 H       
  81 H81           -1.3560     5.9701     1.5874 H       
@<TRIPOS>BOND
   1    1    2 1
   2    1    5 1
   3    1    6 am
   4    2    3 1
   5    2    9 1
   6    2   45 1
   7    3    4 1
   8    3   46 1
   9    3   47 1
  10    4    5 1
  11    4   17 1
  12    4   48 1
  13    5   49 1
  14    5   50 1
  15    6    7 2
  16    6    8 1
  17    8   38 1
  18    9   10 1
  19    9   51 1
  20    9   52 1
  21   10   11 1
  22   10   53 1
  23   11   12 ar
  24   11   16 ar
  25   12   13 ar
  26   12   54 1
  27   13   14 ar
  28   13   55 1
  29   14   15 ar
  30   14   56 1
  31   15   16 ar
  32   15   57 1
  33   17   18 1
  34   18   19 1
  35   18   58 1
  36   18   59 1
  37   19   20 am
  38   19   21 2
  39   20   22 1
  40   20   60 1
  41   22   23 1
  42   22   61 1
  43   22   62 1
  44   23   24 1
  45   23   35 1
  46   23   63 1
  47   24   25 am
  48   24   64 1
  49   25   26 1
  50   25   32 2
  51   26   27 ar
  52   26   31 ar
  53   27   28 ar
  54   27   33 1
  55   28   29 ar
  56   28   65 1
  57   29   30 ar
  58   29   66 1
  59   30   31 ar
  60   30   67 1
  61   31   68 1
  62   33   34 1
  63   33   69 1
  64   33   70 1
  65   34   71 1
  66   34   72 1
  67   34   73 1
  68   35   36 2
  69   35   37 1
  70   37   74 1
  71   38   39 1
  72   38   75 1
  73   38   76 1
  74   39   40 ar
  75   39   44 ar
  76   40   41 ar
  77   40   77 1
  78   41   42 ar
  79   41   78 1
  80   42   43 ar
  81   42   79 1
  82   43   44 ar
  83   43   80 1
  84   44   81 1

#	End of record

