#	Name: ASD03950015
#	Creating user name:	WinNT
#	Creation time:	15. 06. 2019 20:48

#	Modifying user name:	WinNT
#	Modification time:	15. 06. 2019 20:48

#	Program:	/corina/corina34_cracker 3.40 0067  02.08.2006

@<TRIPOS>MOLECULE
ASD03950015
  64   68    0    0    0
SMALL
NO_CHARGES


@<TRIPOS>ATOM
   1 N1            -0.0575     1.2901     1.3335 N.pl3   
   2 N2            -0.0297    -0.0837     1.0738 N.2     
   3 C3             1.2014    -0.5063     1.0352 C.2     
   4 C4             2.0718     0.6407     1.2823 C.ar    
   5 C5             3.4574     0.8035     1.3596 C.ar    
   6 C6             3.9935     2.0578     1.6153 C.ar    
   7 C7             3.1569     3.1604     1.7967 C.ar    
   8 C8             1.7772     3.0151     1.7234 C.ar    
   9 C9             1.2221     1.7482     1.4637 C.ar    
  10 C10            0.8978     4.1838     1.9164 C.2     
  11 O11           -0.3094     4.0536     1.8517 O.2     
  12 N12            1.4326     5.3958     2.1645 N.am    
  13 C13            5.4657     2.2278     1.6969 C.ar    
  14 C14            6.0112     3.4839     1.9533 C.ar    
  15 C15            7.3810     3.6363     2.0286 C.ar    
  16 C16            8.2116     2.5449     1.8496 C.ar    
  17 C17            7.6754     1.2957     1.5944 C.ar    
  18 C18            6.3069     1.1308     1.5232 C.ar    
  19 N19            1.2077    -4.6654     0.2464 N.am    
  20 C20            1.5524    -4.2743     1.6201 C.3     
  21 C21            1.0684    -2.8409     1.8608 C.3     
  22 C22            1.6479    -1.9231     0.7819 C.3     
  23 C23            1.1535    -2.3752    -0.5941 C.3     
  24 C24            1.6385    -3.8033    -0.8626 C.3     
  25 S25            0.3560    -6.0549    -0.0467 S.o2    
  26 O26            0.6561    -6.4353    -1.3826 O.2     
  27 O27            0.5762    -6.9040     1.0712 O.2     
  28 C28           -1.3546    -5.6332    -0.0218 C.ar    
  29 C29           -1.9861    -5.2433    -1.1886 C.ar    
  30 C30           -3.3269    -4.9121    -1.1725 C.ar    
  31 C31           -4.0409    -4.9714     0.0171 C.ar    
  32 C32           -3.4039    -5.3638     1.1871 C.ar    
  33 C33           -2.0641    -5.6983     1.1633 C.ar    
  34 N34           -5.3992    -4.6361     0.0370 N.am    
  35 C35           -6.1844    -4.9423    -1.0148 C.2     
  36 O36           -5.6982    -5.4316    -2.0124 O.2     
  37 C37           -7.6664    -4.6767    -0.9513 C.3     
  38 H38           -0.8586     1.8322     1.4057 H       
  39 H39            4.1103    -0.0456     1.2210 H       
  40 H40            3.5846     4.1320     1.9956 H       
  41 H41            2.3956     5.4997     2.2162 H       
  42 H42            0.8544     6.1643     2.2914 H       
  43 H43            5.3636     4.3369     2.0925 H       
  44 H44            7.8049     4.6095     2.2273 H       
  45 H45            9.2829     2.6686     1.9090 H       
  46 H46            8.3285     0.4470     1.4548 H       
  47 H47            5.8890     0.1541     1.3286 H       
  48 H48            1.0648    -4.9478     2.3250 H       
  49 H49            2.6331    -4.3223     1.7535 H       
  50 H50           -0.0203    -2.8122     1.8165 H       
  51 H51            1.4020    -2.5043     2.8424 H       
  52 H52            2.7364    -1.9715     0.8104 H       
  53 H53            0.0640    -2.3509    -0.6153 H       
  54 H54            1.5478    -1.7071    -1.3598 H       
  55 H55            2.7262    -3.8129    -0.9317 H       
  56 H56            1.2077    -4.1660    -1.7959 H       
  57 H57           -1.4303    -5.1975    -2.1135 H       
  58 H58           -3.8194    -4.6070    -2.0839 H       
  59 H59           -3.9565    -5.4108     2.1138 H       
  60 H60           -1.5691    -6.0075     2.0721 H       
  61 H61           -5.7758    -4.1832     0.8077 H       
  62 H62           -7.8384    -3.6116    -0.7957 H       
  63 H63           -8.1315    -4.9868    -1.8871 H       
  64 H64           -8.1014    -5.2395    -0.1254 H       
@<TRIPOS>BOND
   1    1    2 1
   2    1    9 1
   3    1   38 1
   4    2    3 2
   5    3    4 1
   6    3   22 1
   7    4    5 ar
   8    4    9 ar
   9    5    6 ar
  10    5   39 1
  11    6    7 ar
  12    6   13 1
  13    7    8 ar
  14    7   40 1
  15    8    9 ar
  16    8   10 1
  17   10   11 2
  18   10   12 am
  19   12   41 1
  20   12   42 1
  21   13   14 ar
  22   13   18 ar
  23   14   15 ar
  24   14   43 1
  25   15   16 ar
  26   15   44 1
  27   16   17 ar
  28   16   45 1
  29   17   18 ar
  30   17   46 1
  31   18   47 1
  32   19   20 1
  33   19   24 1
  34   19   25 am
  35   20   21 1
  36   20   48 1
  37   20   49 1
  38   21   22 1
  39   21   50 1
  40   21   51 1
  41   22   23 1
  42   22   52 1
  43   23   24 1
  44   23   53 1
  45   23   54 1
  46   24   55 1
  47   24   56 1
  48   25   26 2
  49   25   27 2
  50   25   28 1
  51   28   29 ar
  52   28   33 ar
  53   29   30 ar
  54   29   57 1
  55   30   31 ar
  56   30   58 1
  57   31   32 ar
  58   31   34 1
  59   32   33 ar
  60   32   59 1
  61   33   60 1
  62   34   35 am
  63   34   61 1
  64   35   36 2
  65   35   37 1
  66   37   62 1
  67   37   63 1
  68   37   64 1

#	End of record

