#	Name: ASD01880198
#	Creating user name:	WinNT
#	Creation time:	15. 06. 2019 19:40

#	Modifying user name:	WinNT
#	Modification time:	15. 06. 2019 19:40

#	Program:	/corina/corina34_cracker 3.40 0067  02.08.2006

@<TRIPOS>MOLECULE
ASD01880198
  51   55    0    0    0
SMALL
NO_CHARGES


@<TRIPOS>ATOM
   1 C1             0.2588     1.4870    -0.0104 C.2     
   2 C2             0.0198    -0.0006     0.0222 C.3     
   3 N3             0.1826    -0.4927     1.3967 N.3     
   4 C4            -0.1403    -1.9401     1.4858 C.3     
   5 C5            -0.4531    -2.1777     2.9787 C.3     
   6 C6            -0.8809    -0.7992     3.5230 C.3     
   7 C7            -0.7906     0.1554     2.3131 C.3     
   8 C8            -1.8873    -1.9498     3.4604 C.3     
   9 H9            -0.5306    -0.4282     4.4862 H       
  10 H10            0.2156    -2.8330     3.5368 H       
  11 C11           -2.2987    -2.5997     4.7830 C.3     
  12 O12           -3.6917    -2.3767     5.0104 O.3     
  13 C13           -4.2211    -2.8927     6.1507 C.ar    
  14 C14           -5.5673    -2.7140     6.4347 C.ar    
  15 C15           -6.1030    -3.2395     7.5946 C.ar    
  16 C16           -5.2988    -3.9431     8.4720 C.ar    
  17 C17           -3.9568    -4.1222     8.1915 C.ar    
  18 C18           -3.4176    -3.6040     7.0299 C.ar    
  19 N19           -0.6742     2.3929     0.0320 N.2     
  20 C20           -0.1132     3.6285    -0.0159 C.ar    
  21 C21            1.2775     3.4437    -0.0939 C.ar    
  22 N22            1.4817     2.0784    -0.0825 N.pl3   
  23 C23           -0.6347     4.9249    -0.0022 C.ar    
  24 C24            0.2080     5.9982    -0.0644 C.ar    
  25 C25            1.5816     5.8162    -0.1414 C.ar    
  26 C26            2.1184     4.5466    -0.1563 C.ar    
  27 C27            2.7751     1.3934    -0.1462 C.3     
  28 C28           -5.8858    -4.5153     9.7366 C.3     
  29 F29           -6.3506    -5.8115     9.4900 F       
  30 F30           -4.9028    -4.5537    10.7313 F       
  31 F31           -6.9489    -3.7117    10.1624 F       
  32 H32           -0.9921    -0.2137    -0.3225 H       
  33 H33            0.7380    -0.4983    -0.6294 H       
  34 H34           -1.0110    -2.1737     0.8731 H       
  35 H35            0.7154    -2.5402     1.1764 H       
  36 H36           -0.4245     1.1331     2.6267 H       
  37 H37           -1.7630     0.2498     1.8298 H       
  38 H38           -2.6687    -1.8931     2.7025 H       
  39 H39           -2.1050    -3.6713     4.7370 H       
  40 H40           -1.7228    -2.1610     5.5979 H       
  41 H41           -6.1958    -2.1642     5.7498 H       
  42 H42           -7.1508    -3.1003     7.8163 H       
  43 H43           -3.3305    -4.6716     8.8788 H       
  44 H44           -2.3693    -3.7442     6.8112 H       
  45 H45           -1.7021     5.0779     0.0571 H       
  46 H46           -0.1989     6.9985    -0.0539 H       
  47 H47            2.2345     6.6752    -0.1903 H       
  48 H48            3.1881     4.4105    -0.2164 H       
  49 H49            3.1937     1.3132     0.8570 H       
  50 H50            2.6377     0.3957    -0.5633 H       
  51 H51            3.4563     1.9614    -0.7798 H       
@<TRIPOS>BOND
   1    1    2 1
   2    1   19 2
   3    1   22 1
   4    2    3 1
   5    2   32 1
   6    2   33 1
   7    3    4 1
   8    3    7 1
   9    4    5 1
  10    4   34 1
  11    4   35 1
  12    5    6 1
  13    5   10 1
  14    5    8 1
  15    6    7 1
  16    6    9 1
  17    6    8 1
  18    7   36 1
  19    7   37 1
  20    8   11 1
  21    8   38 1
  22   11   12 1
  23   11   39 1
  24   11   40 1
  25   12   13 1
  26   13   14 ar
  27   13   18 ar
  28   14   15 ar
  29   14   41 1
  30   15   16 ar
  31   15   42 1
  32   16   17 ar
  33   16   28 1
  34   17   18 ar
  35   17   43 1
  36   18   44 1
  37   19   20 1
  38   20   21 ar
  39   20   23 ar
  40   21   22 1
  41   21   26 ar
  42   22   27 1
  43   23   24 ar
  44   23   45 1
  45   24   25 ar
  46   24   46 1
  47   25   26 ar
  48   25   47 1
  49   26   48 1
  50   27   49 1
  51   27   50 1
  52   27   51 1
  53   28   29 1
  54   28   30 1
  55   28   31 1

#	End of record

