#	Name: ASD09800008
#	Creating user name:	WinNT
#	Creation time:	15. 06. 2019 21:24

#	Modifying user name:	WinNT
#	Modification time:	15. 06. 2019 21:24

#	Program:	/corina/corina34_cracker 3.40 0067  02.08.2006

@<TRIPOS>MOLECULE
ASD09800008
  70   75    0    0    0
SMALL
NO_CHARGES


@<TRIPOS>ATOM
   1 C1             2.2796    -0.0117     0.1757 C.ar    
   2 C2             1.0522    -0.6314     0.2888 C.ar    
   3 C3            -0.1096     0.1213     0.3759 C.ar    
   4 C4            -0.0546     1.4968     0.3508 C.ar    
   5 C5             1.1806     2.1398     0.2367 C.ar    
   6 C6             2.3540     1.3727     0.1488 C.ar    
   7 N7             1.5517     3.4459     0.1851 N.2     
   8 C8             2.8541     3.5290     0.0732 C.2     
   9 N9             3.3984     2.2765     0.0462 N.pl3   
  10 N10            3.5696     4.7062    -0.0052 N.pl3   
  11 C11            2.8971     5.9278    -0.0967 C.ar    
  12 C12            1.5332     5.9563    -0.2904 C.ar    
  13 C13            3.6091     7.1412     0.0143 C.ar    
  14 C14            2.9087     8.3685    -0.0814 C.ar    
  15 C15            1.5140     8.3566    -0.2852 C.ar    
  16 C16            0.8514     7.1661    -0.3833 C.ar    
  17 C17            4.9980     7.1544     0.2182 C.ar    
  18 C18            5.6529     8.3437     0.3211 C.ar    
  19 C19            4.9642     9.5514     0.2274 C.ar    
  20 C20            3.6175     9.5761     0.0290 C.ar    
  21 O21            0.8293     9.5269    -0.3788 O.3     
  22 C22            0.6817    10.0811    -1.6068 C.ar    
  23 C23           -0.0176    11.2873    -1.7464 C.ar    
  24 N24            1.2031     9.4830    -2.6641 N.ar    
  25 C25           -0.1577    11.8413    -3.0203 C.ar    
  26 C26            0.4034    11.1711    -4.0950 C.ar    
  27 C27            1.0835     9.9877    -3.8773 C.ar    
  28 C28           -0.5986    11.9628    -0.5628 C.ar    
  29 N29           -0.4647    11.4331     0.6515 N.ar    
  30 C30           -1.2913    13.1695    -0.7028 C.ar    
  31 C31           -1.8157    13.7632     0.4305 C.ar    
  32 N32           -1.6481    13.1767     1.6058 N.ar    
  33 C33           -0.9828    12.0355     1.7102 C.ar    
  34 N34           -0.8309    11.4554     2.9577 N.pl3   
  35 C35           -1.4022    12.1029     4.1412 C.3     
  36 C36           -1.0934    11.2621     5.3816 C.3     
  37 N37           -1.6663    11.9113     6.5683 N.3     
  38 C38           -1.5989    11.0247     7.7376 C.3     
  39 C39           -1.0010    13.1925     6.8401 C.3     
  40 C40           -0.6397     7.1625    -0.6011 C.3     
  41 H41            3.1809    -0.6034     0.1127 H       
  42 H42            0.9956    -1.7097     0.3093 H       
  43 H43           -1.0646    -0.3754     0.4638 H       
  44 H44           -0.9631     2.0767     0.4187 H       
  45 H45            4.3409     2.0604    -0.0302 H       
  46 H46            4.5393     4.6859     0.0032 H       
  47 H47            0.9865     5.0285    -0.3714 H       
  48 H48            5.5443     6.2258     0.2934 H       
  49 H49            6.7214     8.3511     0.4779 H       
  50 H50            5.5066    10.4813     0.3130 H       
  51 H51            3.0967    10.5196    -0.0419 H       
  52 H52           -0.6907    12.7695    -3.1644 H       
  53 H53            0.3133    11.5717    -5.0939 H       
  54 H54            1.5213     9.4653    -4.7150 H       
  55 H55           -1.4134    13.6272    -1.6733 H       
  56 H56           -2.3558    14.6956     0.3579 H       
  57 H57           -0.3461    10.6201     3.0483 H       
  58 H58           -0.9674    13.0956     4.2577 H       
  59 H59           -2.4820    12.1910     4.0215 H       
  60 H60           -1.5282    10.2694     5.2650 H       
  61 H61           -0.0136    11.1740     5.5012 H       
  62 H62           -0.5584    10.7743     7.9442 H       
  63 H63           -2.0296    11.5300     8.6020 H       
  64 H64           -2.1588    10.1118     7.5341 H       
  65 H65           -1.1262    13.8557     5.9842 H       
  66 H66           -1.4444    13.6519     7.7236 H       
  67 H67            0.0612    13.0207     7.0142 H       
  68 H68           -0.8507     7.1629    -1.6705 H       
  69 H69           -1.0713     6.2711    -0.1460 H       
  70 H70           -1.0757     8.0511    -0.1445 H       
@<TRIPOS>BOND
   1    1    2 ar
   2    1    6 ar
   3    1   41 1
   4    2    3 ar
   5    2   42 1
   6    3    4 ar
   7    3   43 1
   8    4    5 ar
   9    4   44 1
  10    5    6 ar
  11    5    7 1
  12    6    9 1
  13    7    8 2
  14    8    9 1
  15    8   10 1
  16    9   45 1
  17   10   11 1
  18   10   46 1
  19   11   12 ar
  20   11   13 ar
  21   12   16 ar
  22   12   47 1
  23   13   14 ar
  24   13   17 ar
  25   14   15 ar
  26   14   20 ar
  27   15   16 ar
  28   15   21 1
  29   16   40 1
  30   17   18 ar
  31   17   48 1
  32   18   19 ar
  33   18   49 1
  34   19   20 ar
  35   19   50 1
  36   20   51 1
  37   21   22 1
  38   22   23 ar
  39   22   24 ar
  40   23   25 ar
  41   23   28 1
  42   24   27 ar
  43   25   26 ar
  44   25   52 1
  45   26   27 ar
  46   26   53 1
  47   27   54 1
  48   28   29 ar
  49   28   30 ar
  50   29   33 ar
  51   30   31 ar
  52   30   55 1
  53   31   32 ar
  54   31   56 1
  55   32   33 ar
  56   33   34 1
  57   34   35 1
  58   34   57 1
  59   35   36 1
  60   35   58 1
  61   35   59 1
  62   36   37 1
  63   36   60 1
  64   36   61 1
  65   37   38 1
  66   37   39 1
  67   38   62 1
  68   38   63 1
  69   38   64 1
  70   39   65 1
  71   39   66 1
  72   39   67 1
  73   40   68 1
  74   40   69 1
  75   40   70 1

#	End of record

