#	Name: ASD06170068
#	Creating user name:	WinNT
#	Creation time:	15. 06. 2019 21:05

#	Modifying user name:	WinNT
#	Modification time:	15. 06. 2019 21:05

#	Program:	/corina/corina34_cracker 3.40 0067  02.08.2006

@<TRIPOS>MOLECULE
ASD06170068
  70   74    0    0    0
SMALL
NO_CHARGES


@<TRIPOS>ATOM
   1 N1            -0.1181     1.3817    -0.3548 N.pl3   
   2 N2            -0.0501     0.0256    -0.0221 N.am    
   3 C3             1.2368    -0.2905     0.2315 C.2     
   4 C4             2.0152     0.9443     0.0450 C.2     
   5 C5             1.1128     1.9264    -0.3141 C.2     
   6 C6             3.4653     1.1016     0.2093 C.2     
   7 O7             3.9846     2.1863     0.0230 O.2     
   8 N8             4.2216     0.0448     0.5664 N.am    
   9 C9            -1.1345    -0.8557     0.0383 C.ar    
  10 C10           -2.0908    -0.8525    -0.9689 C.ar    
  11 C11           -3.1601    -1.7244    -0.9066 C.ar    
  12 C12           -3.2795    -2.5996     0.1574 C.ar    
  13 C13           -2.3291    -2.6053     1.1618 C.ar    
  14 C14           -1.2543    -1.7400     1.1026 C.ar    
  15 O15            1.6689    -1.3821     0.5519 O.2     
  16 C16            1.4492     3.3650    -0.6112 C.3     
  17 C17           -1.3456     2.1021    -0.7022 C.3     
  18 C18           -1.9709     2.6856     0.5664 C.3     
  19 C19           -3.3151     3.3302     0.2224 C.3     
  20 C20           -3.9978     3.8030     1.5074 C.3     
  21 O21           -1.0967     3.6724     1.1179 O.3     
  22 C22            5.6180     0.1491     0.5601 C.ar    
  23 C23            6.2232     1.3833     0.7586 C.ar    
  24 C24            7.6017     1.4851     0.7527 C.ar    
  25 C25            8.3807     0.3525     0.5481 C.ar    
  26 C26            7.7754    -0.8790     0.3501 C.ar    
  27 C27            6.3978    -0.9822     0.3612 C.ar    
  28 O28            9.7370     0.4523     0.5418 O.3     
  29 N29           11.6311     1.0304     4.1594 N.ar    
  30 C30           10.3202     1.0208     4.0947 C.ar    
  31 C31            9.6477     0.8292     2.8947 C.ar    
  32 C32           10.3667     0.6420     1.7271 C.ar    
  33 C33           11.7778     0.6542     1.8085 C.ar    
  34 C34           12.5737     0.4718     0.6682 C.ar    
  35 C35           13.9300     0.4892     0.7790 C.ar    
  36 C36           14.5436     0.6873     2.0192 C.ar    
  37 C37           13.7900     0.8688     3.1567 C.ar    
  38 C38           12.3888     0.8557     3.0702 C.ar    
  39 O39           15.8993     0.7004     2.1029 O.3     
  40 C40           16.6262     0.5061     0.8880 C.3     
  41 F41            8.1914     2.6853     0.9452 F       
  42 H42            3.7987    -0.7881     0.8278 H       
  43 H43           -1.9985    -0.1688    -1.7998 H       
  44 H44           -3.9040    -1.7224    -1.6895 H       
  45 H45           -4.1170    -3.2799     0.2041 H       
  46 H46           -2.4252    -3.2900     1.9915 H       
  47 H47           -0.5102    -1.7477     1.8853 H       
  48 H48            1.3929     3.9485     0.3077 H       
  49 H49            2.4584     3.4254    -1.0187 H       
  50 H50            0.7398     3.7615    -1.3375 H       
  51 H51           -1.1092     2.9094    -1.3953 H       
  52 H52           -2.0497     1.4149    -1.1713 H       
  53 H53           -2.1255     1.8895     1.2947 H       
  54 H54           -3.1512     4.1827    -0.4368 H       
  55 H55           -3.9504     2.6001    -0.2791 H       
  56 H56           -4.1617     2.9505     2.1666 H       
  57 H57           -3.3625     4.5331     2.0089 H       
  58 H58           -4.9555     4.2622     1.2623 H       
  59 H59           -0.9142     4.4127     0.5231 H       
  60 H60            5.6171     2.2630     0.9171 H       
  61 H61            8.3813    -1.7588     0.1912 H       
  62 H62            5.9273    -1.9426     0.2109 H       
  63 H63            9.7488     1.1658     4.9996 H       
  64 H64            8.5679     0.8257     2.8730 H       
  65 H65           12.1113     0.3174    -0.2956 H       
  66 H66           14.5392     0.3480    -0.1015 H       
  67 H67           14.2739     1.0204     4.1103 H       
  68 H68           16.3688     1.2943     0.1805 H       
  69 H69           17.6958     0.5390     1.0953 H       
  70 H70           16.3685    -0.4633     0.4615 H       
@<TRIPOS>BOND
   1    1    2 1
   2    1    5 1
   3    1   17 1
   4    2    3 am
   5    2    9 1
   6    3    4 1
   7    3   15 2
   8    4    5 2
   9    4    6 1
  10    5   16 1
  11    6    7 2
  12    6    8 am
  13    8   22 1
  14    8   42 1
  15    9   10 ar
  16    9   14 ar
  17   10   11 ar
  18   10   43 1
  19   11   12 ar
  20   11   44 1
  21   12   13 ar
  22   12   45 1
  23   13   14 ar
  24   13   46 1
  25   14   47 1
  26   16   48 1
  27   16   49 1
  28   16   50 1
  29   17   18 1
  30   17   51 1
  31   17   52 1
  32   18   19 1
  33   18   21 1
  34   18   53 1
  35   19   20 1
  36   19   54 1
  37   19   55 1
  38   20   56 1
  39   20   57 1
  40   20   58 1
  41   21   59 1
  42   22   23 ar
  43   22   27 ar
  44   23   24 ar
  45   23   60 1
  46   24   25 ar
  47   24   41 1
  48   25   26 ar
  49   25   28 1
  50   26   27 ar
  51   26   61 1
  52   27   62 1
  53   28   32 1
  54   29   30 ar
  55   29   38 ar
  56   30   31 ar
  57   30   63 1
  58   31   32 ar
  59   31   64 1
  60   32   33 ar
  61   33   34 ar
  62   33   38 ar
  63   34   35 ar
  64   34   65 1
  65   35   36 ar
  66   35   66 1
  67   36   37 ar
  68   36   39 1
  69   37   38 ar
  70   37   67 1
  71   39   40 1
  72   40   68 1
  73   40   69 1
  74   40   70 1

#	End of record

