#	Name: ASD01814064
#	Creating user name:	WinNT
#	Creation time:	15. 06. 2019 19:31

#	Modifying user name:	WinNT
#	Modification time:	15. 06. 2019 19:31

#	Program:	/corina/corina34_cracker 3.40 0067  02.08.2006

@<TRIPOS>MOLECULE
ASD01814064
  44   47    0    0    0
SMALL
NO_CHARGES


@<TRIPOS>ATOM
   1 C1             1.1550     2.2510    -0.5134 C.ar    
   2 C2             0.7787     0.9157    -0.4983 C.ar    
   3 C3             1.7214    -0.0800    -0.3469 C.ar    
   4 C4             3.0685     0.2526    -0.2070 C.ar    
   5 C5             3.4449     1.6060    -0.2229 C.ar    
   6 C6             2.4800     2.6015    -0.3768 C.ar    
   7 N7             4.0210    -0.7324    -0.0539 N.pl3   
   8 C8             5.3254    -0.4649     0.0853 C.2     
   9 C9             5.8156     0.8257     0.0857 C.2     
  10 C10            4.8727     1.9444    -0.0741 C.2     
  11 O11            5.2552     3.1013    -0.0806 O.2     
  12 C12            7.2550     1.0781     0.2423 C.2     
  13 O13            7.7215     2.3429     0.2411 O.3     
  14 O14            8.0248     0.1464     0.3728 O.2     
  15 C15            3.5871    -2.1316    -0.0427 C.3     
  16 C16            3.4445    -2.6248    -1.4595 C.ar    
  17 C17            4.5266    -2.5716    -2.3222 C.ar    
  18 C18            4.3973    -3.0240    -3.6234 C.ar    
  19 C19            3.1824    -3.5312    -4.0621 C.ar    
  20 C20            2.0999    -3.5832    -3.1937 C.ar    
  21 C21            2.2353    -3.1349    -1.8944 C.ar    
  22 N22            3.0479    -3.9900    -5.3799 N.pl3   
  23 F23            1.3401    -1.3760    -0.3337 F       
  24 C24            1.9265    -4.5051    -5.9327 C.2     
  25 C25            2.2103    -4.8263    -7.2162 C.2     
  26 C26            3.5487    -4.4971    -7.4568 C.2     
  27 N27            4.0497    -3.9904    -6.3590 N.2     
  28 F28            5.7086    -2.0774    -1.8933 F       
  29 C29            4.2850    -4.6875    -8.7578 C.3     
  30 H30            0.4059     3.0190    -0.6372 H       
  31 H31           -0.2633     0.6530    -0.6059 H       
  32 H32            2.7704     3.6416    -0.3892 H       
  33 H33            6.0171    -1.2861     0.2015 H       
  34 H34            8.6756     2.4590     0.3471 H       
  35 H35            4.3273    -2.7373     0.4801 H       
  36 H36            2.6272    -2.2103     0.4677 H       
  37 H37            5.2407    -2.9820    -4.2967 H       
  38 H38            1.1536    -3.9776    -3.5332 H       
  39 H39            1.3932    -3.1756    -1.2195 H       
  40 H40            0.9752    -4.6366    -5.4386 H       
  41 H41            1.5247    -5.2601    -7.9291 H       
  42 H42            4.1773    -3.7925    -9.3706 H       
  43 H43            5.3413    -4.8641    -8.5551 H       
  44 H44            3.8689    -5.5436    -9.2889 H       
@<TRIPOS>BOND
   1    1    2 ar
   2    1    6 ar
   3    1   30 1
   4    2    3 ar
   5    2   31 1
   6    3    4 ar
   7    3   23 1
   8    4    5 ar
   9    4    7 1
  10    5    6 ar
  11    5   10 1
  12    6   32 1
  13    7    8 1
  14    7   15 1
  15    8    9 2
  16    8   33 1
  17    9   10 1
  18    9   12 1
  19   10   11 2
  20   12   13 1
  21   12   14 2
  22   13   34 1
  23   15   16 1
  24   15   35 1
  25   15   36 1
  26   16   17 ar
  27   16   21 ar
  28   17   18 ar
  29   17   28 1
  30   18   19 ar
  31   18   37 1
  32   19   20 ar
  33   19   22 1
  34   20   21 ar
  35   20   38 1
  36   21   39 1
  37   22   24 1
  38   22   27 1
  39   24   25 2
  40   24   40 1
  41   25   26 1
  42   25   41 1
  43   26   27 2
  44   26   29 1
  45   29   42 1
  46   29   43 1
  47   29   44 1

#	End of record

