#	Name: ASD01001260
#	Creating user name:	WinNT
#	Creation time:	15. 06. 2019 18:55

#	Modifying user name:	WinNT
#	Modification time:	15. 06. 2019 18:55

#	Program:	/corina/corina34_cracker 3.40 0067  02.08.2006

@<TRIPOS>MOLECULE
ASD01001260
  49   52    0    0    0
SMALL
NO_CHARGES


@<TRIPOS>ATOM
   1 C1            -0.0676     1.4447     0.6196 C.ar    
   2 C2            -0.0752     0.0984     0.9288 C.ar    
   3 C3             1.1018    -0.5405     1.2861 C.ar    
   4 C4             2.2903     0.1640     1.3356 C.ar    
   5 C5             2.3117     1.5118     1.0290 C.ar    
   6 C6             1.1286     2.1617     0.6676 C.ar    
   7 C7             1.1441     3.6028     0.3379 C.2     
   8 S8            -0.2463     4.6021    -0.1412 S.3     
   9 C9             0.7055     6.1521    -0.3294 C.3     
  10 N10            2.0676     5.7253     0.0134 N.am    
  11 N11            2.1728     4.3908     0.3460 N.2     
  12 F12           -1.2326    -0.5971     0.8832 F       
  13 F13            3.4738     2.1991     1.0787 F       
  14 C14            3.1227     6.5655     0.0086 C.2     
  15 O15            2.9444     7.7630    -0.0754 O.2     
  16 C16            0.6300     6.6384    -1.7679 C.3     
  17 C17            1.2569     8.0367    -1.8427 C.3     
  18 C18            0.3528     9.0136    -1.0942 C.3     
  19 C19            0.0457     8.5047     0.2895 C.ar    
  20 C20            0.2045     7.1809     0.6403 C.ar    
  21 C21           -0.4132     9.4158     1.2311 C.ar    
  22 C22           -0.7153     9.0070     2.5135 C.ar    
  23 C23           -0.5604     7.6786     2.8646 C.ar    
  24 C24           -0.1029     6.7719     1.9315 C.ar    
  25 C25            4.5229     6.0172     0.1074 C.3     
  26 C26            5.5259     7.1723     0.0802 C.3     
  27 C27            6.9476     6.6156     0.1805 C.3     
  28 N28            7.9106     7.7246     0.1545 N.3     
  29 H29           -0.9846     1.9403     0.3370 H       
  30 H30            1.0903    -1.5931     1.5273 H       
  31 H31            3.2040    -0.3396     1.6148 H       
  32 H32            1.1805     5.9553    -2.4148 H       
  33 H33           -0.4120     6.6868    -2.0839 H       
  34 H34            2.2430     8.0213    -1.3786 H       
  35 H35            1.3442     8.3436    -2.8850 H       
  36 H36            0.8528     9.9792    -1.0185 H       
  37 H37           -0.5790     9.1354    -1.6466 H       
  38 H38           -0.5344    10.4535     0.9575 H       
  39 H39           -1.0711     9.7219     3.2407 H       
  40 H40           -0.7968     7.3521     3.8666 H       
  41 H41            0.0175     5.7346     2.2074 H       
  42 H42            4.6314     5.4637     1.0401 H       
  43 H43            4.7126     5.3514    -0.7345 H       
  44 H44            5.4175     7.7258    -0.8525 H       
  45 H45            5.3362     7.8381     0.9221 H       
  46 H46            7.0560     6.0621     1.1132 H       
  47 H47            7.1373     5.9498    -0.6613 H       
  48 H48            7.7154     8.3903     0.8872 H       
  49 H49            8.8577     7.3827     0.2195 H       
@<TRIPOS>BOND
   1    1    2 ar
   2    1    6 ar
   3    1   29 1
   4    2    3 ar
   5    2   12 1
   6    3    4 ar
   7    3   30 1
   8    4    5 ar
   9    4   31 1
  10    5    6 ar
  11    5   13 1
  12    6    7 1
  13    7    8 1
  14    7   11 2
  15    8    9 1
  16    9   10 1
  17    9   16 1
  18    9   20 1
  19   10   11 1
  20   10   14 am
  21   14   15 2
  22   14   25 1
  23   16   17 1
  24   16   32 1
  25   16   33 1
  26   17   18 1
  27   17   34 1
  28   17   35 1
  29   18   19 1
  30   18   36 1
  31   18   37 1
  32   19   20 ar
  33   19   21 ar
  34   20   24 ar
  35   21   22 ar
  36   21   38 1
  37   22   23 ar
  38   22   39 1
  39   23   24 ar
  40   23   40 1
  41   24   41 1
  42   25   26 1
  43   25   42 1
  44   25   43 1
  45   26   27 1
  46   26   44 1
  47   26   45 1
  48   27   28 1
  49   27   46 1
  50   27   47 1
  51   28   48 1
  52   28   49 1

#	End of record

