#	Name: ASD00110021
#	Creating user name:	WinNT
#	Creation time:	15. 06. 2019 18:30

#	Modifying user name:	WinNT
#	Modification time:	15. 06. 2019 18:30

#	Program:	/corina/corina34_cracker 3.40 0067  02.08.2006

@<TRIPOS>MOLECULE
ASD00110021
  75   76    0    0    0
SMALL
NO_CHARGES


@<TRIPOS>ATOM
   1 C1            -0.0187     1.5258     0.0104 C.3     
   2 C2             1.3911     3.5856     0.0696 C.3     
   3 C3             2.8031     4.1121     0.0790 C.2     
   4 N4             3.4939     4.2092    -1.0742 N.am    
   5 O5             3.3179     4.4485     1.1244 O.2     
   6 C6             4.8665     4.7211    -1.0649 C.3     
   7 C7             4.8412     6.2498    -1.1222 C.3     
   8 O8             4.2892     6.6706    -2.3712 O.3     
   9 C9             5.6216     4.1777    -2.2796 C.3     
  10 O10            5.0339     4.6935    -3.4757 O.3     
  11 C11            0.0021    -0.0041     0.0020 C.3     
  12 C12           -1.4290    -0.5329    -0.1129 C.3     
  13 N13            0.7028     4.0090     1.2957 N.3     
  14 C14           -0.6922     3.5505     1.3068 C.3     
  15 C15           -0.7282     2.0210     1.2737 C.3     
  16 C16            1.4173     2.0571    -0.0004 C.3     
  17 C17            5.5415     2.6729    -2.2890 C.ar    
  18 C18           -1.4083    -2.0627    -0.1213 C.3     
  19 C19           -2.8394    -2.5916    -0.2362 C.3     
  20 C20           -2.8186    -4.1214    -0.2446 C.3     
  21 C21           -4.2497    -4.6502    -0.3595 C.3     
  22 C22           -4.2290    -6.1801    -0.3679 C.3     
  23 C23           -5.6601    -6.7089    -0.4828 C.3     
  24 C24           -5.6393    -8.2387    -0.4913 C.3     
  25 C25           -7.0704    -8.7676    -0.6062 C.3     
  26 C26           -7.0497   -10.2974    -0.6146 C.3     
  27 C27            5.3942    -0.0878    -2.3057 C.ar    
  28 C28            4.3773     0.6620    -2.8666 C.ar    
  29 C29            4.4508     2.0423    -2.8580 C.ar    
  30 C30            6.5613     1.9230    -1.7336 C.ar    
  31 C31            6.4878     0.5426    -1.7422 C.ar    
  32 H32           -0.5477     1.8877    -0.8712 H       
  33 H33            0.8624     3.9797    -0.7983 H       
  34 H34            3.0822     3.9402    -1.9102 H       
  35 H35            5.3679     4.3999    -0.1519 H       
  36 H36            4.2286     6.6338    -0.3064 H       
  37 H37            5.8567     6.6339    -1.0259 H       
  38 H38            4.2424     7.6307    -2.4771 H       
  39 H39            6.6658     4.4856    -2.2259 H       
  40 H40            4.1029     4.4580    -3.5897 H       
  41 H41            0.5883    -0.3548    -0.8473 H       
  42 H42            0.4501    -0.3665     0.9272 H       
  43 H43           -2.0153    -0.1821     0.7365 H       
  44 H44           -1.8771    -0.1705    -1.0381 H       
  45 H45            1.1953     3.6884     2.1159 H       
  46 H46           -1.1841     3.9059     2.2122 H       
  47 H47           -1.2111     3.9450     0.4331 H       
  48 H48           -1.7639     1.6814     1.2662 H       
  49 H49           -0.2215     1.6259     2.1542 H       
  50 H50            1.9578     1.6626     0.8600 H       
  51 H51            1.9145     1.7433    -0.9183 H       
  52 H52           -0.8220    -2.4135    -0.9706 H       
  53 H53           -0.9602    -2.4251     0.8039 H       
  54 H54           -3.4256    -2.2408     0.6131 H       
  55 H55           -3.2874    -2.2292    -1.1614 H       
  56 H56           -2.2324    -4.4722    -1.0940 H       
  57 H57           -2.3706    -4.4838     0.6806 H       
  58 H58           -4.8360    -4.2995     0.4898 H       
  59 H59           -4.6978    -4.2879    -1.2847 H       
  60 H60           -3.6427    -6.5308    -1.2173 H       
  61 H61           -3.7809    -6.5425     0.5573 H       
  62 H62           -6.2463    -6.3582     0.3665 H       
  63 H63           -6.1081    -6.3465    -1.4081 H       
  64 H64           -5.0531    -8.5895    -1.3406 H       
  65 H65           -5.1912    -8.6011     0.4340 H       
  66 H66           -7.6567    -8.4168     0.2432 H       
  67 H67           -7.5185    -8.4052    -1.5314 H       
  68 H68           -6.6016   -10.6598     0.3106 H       
  69 H69           -8.0692   -10.6742    -0.6964 H       
  70 H70           -6.4634   -10.6482    -1.4639 H       
  71 H71            5.3368    -1.1663    -2.3124 H       
  72 H72            3.5229     0.1694    -3.3068 H       
  73 H73            3.6560     2.6281    -3.2955 H       
  74 H74            7.4157     2.4155    -1.2934 H       
  75 H75            7.2823    -0.0432    -1.3040 H       
@<TRIPOS>BOND
   1    1   11 1
   2    1   16 1
   3    1   15 1
   4    1   32 1
   5    2    3 1
   6    2   13 1
   7    2   16 1
   8    2   33 1
   9    3    4 am
  10    3    5 2
  11    4    6 1
  12    4   34 1
  13    6    7 1
  14    6    9 1
  15    6   35 1
  16    7    8 1
  17    7   36 1
  18    7   37 1
  19    8   38 1
  20    9   10 1
  21    9   17 1
  22    9   39 1
  23   10   40 1
  24   11   12 1
  25   11   41 1
  26   11   42 1
  27   12   18 1
  28   12   43 1
  29   12   44 1
  30   13   14 1
  31   13   45 1
  32   14   15 1
  33   14   46 1
  34   14   47 1
  35   15   48 1
  36   15   49 1
  37   16   50 1
  38   16   51 1
  39   17   30 ar
  40   17   29 ar
  41   18   19 1
  42   18   52 1
  43   18   53 1
  44   19   20 1
  45   19   54 1
  46   19   55 1
  47   20   21 1
  48   20   56 1
  49   20   57 1
  50   21   22 1
  51   21   58 1
  52   21   59 1
  53   22   23 1
  54   22   60 1
  55   22   61 1
  56   23   24 1
  57   23   62 1
  58   23   63 1
  59   24   25 1
  60   24   64 1
  61   24   65 1
  62   25   26 1
  63   25   66 1
  64   25   67 1
  65   26   68 1
  66   26   69 1
  67   26   70 1
  68   27   28 ar
  69   27   31 ar
  70   27   71 1
  71   28   29 ar
  72   28   72 1
  73   29   73 1
  74   30   31 ar
  75   30   74 1
  76   31   75 1

#	End of record

