#	Name: ASD01881486
#	Creating user name:	WinNT
#	Creation time:	15. 06. 2019 19:42

#	Modifying user name:	WinNT
#	Modification time:	15. 06. 2019 19:42

#	Program:	/corina/corina34_cracker 3.40 0067  02.08.2006

@<TRIPOS>MOLECULE
ASD01881486
  54   57    0    0    0
SMALL
NO_CHARGES


@<TRIPOS>ATOM
   1 C1            -0.0168     1.3871     0.0097 C.ar    
   2 C2             0.0021    -0.0041     0.0020 C.ar    
   3 C3             1.2146    -0.6854    -0.0128 C.ar    
   4 C4             2.4002     0.0161    -0.0204 C.ar    
   5 C5             2.3840     1.4116    -0.0132 C.ar    
   6 C6             1.1657     2.0931     0.0022 C.ar    
   7 C7             3.6565     2.1678    -0.0209 C.2     
   8 C8             4.0217     2.9719     1.0833 C.2     
   9 C9             5.1857     3.6543     1.0598 C.2     
  10 N10            6.0176     3.5820    -0.0133 N.am    
  11 C11            5.7088     2.8289    -1.0849 C.2     
  12 C12            4.5142     2.0952    -1.1097 C.2     
  13 N13           -1.1957    -0.7159     0.0097 N.pl3   
  14 O14            6.4728     2.7811    -2.0364 O.2     
  15 C15            7.2725     4.3380    -0.0028 C.3     
  16 C16            8.3830     3.4746     0.5990 C.3     
  17 C17            9.6935     4.2641     0.6099 C.3     
  18 Cl18           4.1077     1.1205    -2.4875 Cl      
  19 C19           -2.4735     0.0005     0.0258 C.3     
  20 C20           10.9041     3.6143     1.2833 C.3     
  21 C21           10.8472     3.7299    -0.2413 C.3     
  22 O22           -5.2024     0.1643    -0.7747 O.3     
  23 C23           -4.2507     1.0366    -1.3876 C.3     
  24 C24           -2.8782     0.3588    -1.4075 C.3     
  25 C25            1.2313    -2.1923    -0.0201 C.3     
  26 F26            2.5554    -2.6439    -0.0349 F       
  27 F27            0.5880    -2.6714     1.1262 F       
  28 F28            0.5662    -2.6606    -1.1582 F       
  29 C29           -3.5544    -0.8934     0.6414 C.3     
  30 C30           -4.9008    -0.1672     0.5822 C.3     
  31 H31           -0.9596     1.9139     0.0170 H       
  32 H32            3.3414    -0.5135    -0.0316 H       
  33 H33            1.1505     3.1730     0.0074 H       
  34 H34            3.3710     3.0400     1.9427 H       
  35 H35            5.4604     4.2672     1.9055 H       
  36 H36           -1.1835    -1.6859     0.0044 H       
  37 H37            7.5391     4.6136    -1.0231 H       
  38 H38            7.1483     5.2399     0.5965 H       
  39 H39            8.1163     3.1989     1.6193 H       
  40 H40            8.5071     2.5726    -0.0003 H       
  41 H41            9.5900     5.3457     0.6961 H       
  42 H42           -2.3735     0.9112     0.6163 H       
  43 H43           11.5972     4.2686     1.8121 H       
  44 H44           10.7668     2.6244     1.7184 H       
  45 H45           10.6725     2.8160    -0.8091 H       
  46 H46           11.5029     4.4601    -0.7155 H       
  47 H47           -4.5629     1.2553    -2.4088 H       
  48 H48           -4.1896     1.9647    -0.8193 H       
  49 H49           -2.1418     1.0397    -1.8344 H       
  50 H50           -2.9287    -0.5486    -2.0093 H       
  51 H51           -3.6186    -1.8261     0.0810 H       
  52 H52           -3.3017    -1.1080     1.6798 H       
  53 H53           -4.8482     0.7451     1.1762 H       
  54 H54           -5.6814    -0.8157     0.9800 H       
@<TRIPOS>BOND
   1    1    2 ar
   2    1    6 ar
   3    1   31 1
   4    2    3 ar
   5    2   13 1
   6    3    4 ar
   7    3   25 1
   8    4    5 ar
   9    4   32 1
  10    5    6 ar
  11    5    7 1
  12    6   33 1
  13    7    8 1
  14    7   12 2
  15    8    9 2
  16    8   34 1
  17    9   10 1
  18    9   35 1
  19   10   11 am
  20   10   15 1
  21   11   12 1
  22   11   14 2
  23   12   18 1
  24   13   19 1
  25   13   36 1
  26   15   16 1
  27   15   37 1
  28   15   38 1
  29   16   17 1
  30   16   39 1
  31   16   40 1
  32   17   20 1
  33   17   21 1
  34   17   41 1
  35   19   29 1
  36   19   24 1
  37   19   42 1
  38   20   21 1
  39   20   43 1
  40   20   44 1
  41   21   45 1
  42   21   46 1
  43   22   23 1
  44   22   30 1
  45   23   24 1
  46   23   47 1
  47   23   48 1
  48   24   49 1
  49   24   50 1
  50   25   26 1
  51   25   27 1
  52   25   28 1
  53   29   30 1
  54   29   51 1
  55   29   52 1
  56   30   53 1
  57   30   54 1

#	End of record

