#	Name: ASD07301050
#	Creating user name:	WinNT
#	Creation time:	15. 06. 2019 21:10

#	Modifying user name:	WinNT
#	Modification time:	15. 06. 2019 21:10

#	Program:	/corina/corina34_cracker 3.40 0067  02.08.2006

@<TRIPOS>MOLECULE
ASD07301050
  61   64    0    0    0
SMALL
NO_CHARGES


@<TRIPOS>ATOM
   1 N1             1.0404     1.0184     2.5590 N.am    
   2 N2             0.8343    -0.2810     2.1917 N.3     
   3 C3             2.1671     1.7066     2.0947 C.ar    
   4 C4             3.3841     1.0472     1.9782 C.ar    
   5 C5             4.4964     1.7265     1.5194 C.ar    
   6 C6             4.3959     3.0714     1.1743 C.ar    
   7 C7             3.1779     3.7286     1.2917 C.ar    
   8 C8             2.0665     3.0472     1.7452 C.ar    
   9 C9             7.2218     3.8715    -0.7972 C.2     
  10 C10            7.7029     5.1131    -0.1764 C.2     
  11 C11            6.9739     5.6058     0.9372 C.2     
  12 C12            5.8873     4.8966     1.3478 C.2     
  13 N13            5.5213     3.7608     0.7100 N.pl3   
  14 N14            6.1536     3.2846    -0.2981 N.2     
  15 N15            8.1864     3.9283    -3.1455 N.pl3   
  16 N16            8.8610     3.0219    -3.9729 N.2     
  17 C17            9.0012     1.8897    -3.3309 C.2     
  18 C18            8.4251     2.0173    -2.0669 C.2     
  19 C19            7.9201     3.2949    -1.9642 C.2     
  20 C20            7.8501     5.2490    -3.4686 C.ar    
  21 C21            8.7673     6.0601    -4.1238 C.ar    
  22 C22            8.4327     7.3620    -4.4410 C.ar    
  23 C23            7.1859     7.8581    -4.1066 C.ar    
  24 C24            6.2704     7.0529    -3.4541 C.ar    
  25 C25            6.5969     5.7484    -3.1393 C.ar    
  26 O26            8.6898     5.6969    -0.6008 O.2     
  27 O27            7.3488     6.7481     1.5730 O.3     
  28 C28            6.5518     7.1638     2.6839 C.3     
  29 F29            5.6806     1.0861     1.4061 F       
  30 C30            0.1557     1.6396     3.3641 C.2     
  31 O31            0.3833     2.7644     3.7635 O.2     
  32 O32           -0.9803     1.0137     3.7257 O.3     
  33 C33           -1.8868     1.7429     4.5945 C.3     
  34 C34           -2.3308     3.0325     3.9011 C.3     
  35 C35           -3.1122     0.8774     4.8947 C.3     
  36 C36           -1.1726     2.0872     5.9030 C.3     
  37 H37           -0.0139    -0.6425     2.6016 H       
  38 H38            0.8190    -0.3748     1.1872 H       
  39 H39            3.4610     0.0039     2.2465 H       
  40 H40            3.0996     4.7721     1.0244 H       
  41 H41            1.1189     3.5579     1.8322 H       
  42 H42            5.3107     5.2442     2.1922 H       
  43 H43            9.4830     1.0032    -3.7162 H       
  44 H44            8.3823     1.2522    -1.3059 H       
  45 H45            9.7413     5.6734    -4.3849 H       
  46 H46            9.1457     7.9935    -4.9503 H       
  47 H47            6.9268     8.8766    -4.3554 H       
  48 H48            5.2976     7.4434    -3.1940 H       
  49 H49            5.8798     5.1187    -2.6336 H       
  50 H50            6.9591     8.0860     3.0985 H       
  51 H51            5.5278     7.3358     2.3523 H       
  52 H52            6.5606     6.3868     3.4483 H       
  53 H53           -2.8395     2.7872     2.9689 H       
  54 H54           -3.0113     3.5799     4.5533 H       
  55 H55           -1.4578     3.6491     3.6872 H       
  56 H56           -2.7959    -0.0414     5.3887 H       
  57 H57           -3.7927     1.4248     5.5469 H       
  58 H58           -3.6210     0.6320     3.9625 H       
  59 H59           -0.2996     2.7039     5.6891 H       
  60 H60           -1.8532     2.6347     6.5552 H       
  61 H61           -0.8563     1.1685     6.3970 H       
@<TRIPOS>BOND
   1    1    2 1
   2    1    3 1
   3    1   30 am
   4    2   37 1
   5    2   38 1
   6    3    4 ar
   7    3    8 ar
   8    4    5 ar
   9    4   39 1
  10    5    6 ar
  11    5   29 1
  12    6    7 ar
  13    6   13 1
  14    7    8 ar
  15    7   40 1
  16    8   41 1
  17    9   10 1
  18    9   14 2
  19    9   19 1
  20   10   11 1
  21   10   26 2
  22   11   12 2
  23   11   27 1
  24   12   13 1
  25   12   42 1
  26   13   14 1
  27   15   16 1
  28   15   19 1
  29   15   20 1
  30   16   17 2
  31   17   18 1
  32   17   43 1
  33   18   19 2
  34   18   44 1
  35   20   21 ar
  36   20   25 ar
  37   21   22 ar
  38   21   45 1
  39   22   23 ar
  40   22   46 1
  41   23   24 ar
  42   23   47 1
  43   24   25 ar
  44   24   48 1
  45   25   49 1
  46   27   28 1
  47   28   50 1
  48   28   51 1
  49   28   52 1
  50   30   31 2
  51   30   32 1
  52   32   33 1
  53   33   34 1
  54   33   36 1
  55   33   35 1
  56   34   53 1
  57   34   54 1
  58   34   55 1
  59   35   56 1
  60   35   57 1
  61   35   58 1
  62   36   59 1
  63   36   60 1
  64   36   61 1

#	End of record

