#	Name: ASD04910547
#	Creating user name:	WinNT
#	Creation time:	15. 06. 2019 20:56

#	Modifying user name:	WinNT
#	Modification time:	15. 06. 2019 20:56

#	Program:	/corina/corina34_cracker 3.40 0067  02.08.2006

@<TRIPOS>MOLECULE
ASD04910547
  57   59    0    0    0
SMALL
NO_CHARGES


@<TRIPOS>ATOM
   1 C1            -2.1320    -2.2807    -6.7220 C.2     
   2 C2            -1.6332    -2.9752    -5.4810 C.3     
   3 C3            -0.5537    -3.9897    -5.8632 C.3     
   4 O4            -1.6712    -2.5679    -7.8014 O.2     
   5 O5            -3.0920    -1.3472    -6.6288 O.3     
   6 C6             0.8912    -5.6061    -4.7510 C.2     
   7 C7             1.3795    -6.2859    -3.5360 C.ar    
   8 C8             2.3788    -7.2676    -3.6226 C.ar    
   9 C9             2.8015    -7.8723    -2.4699 C.ar    
  10 C10            2.2323    -7.4991    -1.2534 C.ar    
  11 N11            1.2891    -6.5686    -1.1994 N.ar    
  12 C12            0.8583    -5.9580    -2.2836 C.ar    
  13 O13            1.3548    -5.8950    -5.8373 O.2     
  14 N14           -0.0688    -4.6648    -4.6568 N.am    
  15 N15            2.6575    -8.1087    -0.0852 N.pl3   
  16 C16            3.7830    -9.0460    -0.1159 C.3     
  17 C17            4.4266    -9.1156     1.2705 C.3     
  18 C18            5.0452    -7.7591     1.6143 C.3     
  19 C19            5.7904    -7.8615     2.9466 C.3     
  20 C20            2.0867   -10.8891    -0.0168 C.ar    
  21 C21            3.2871   -10.4137    -0.5087 C.ar    
  22 C22            4.0310   -11.2090    -1.3688 C.ar    
  23 C23            3.5386   -12.4588    -1.7043 C.ar    
  24 C24            2.3239   -12.8718    -1.1719 C.ar    
  25 N25            1.6435   -12.0843    -0.3546 N.ar    
  26 N26            1.8152   -14.1313    -1.5031 N.pl3   
  27 N27            2.4196   -15.0691    -2.3504 N.2     
  28 C28            1.6462   -16.1222    -2.4141 C.2     
  29 C29            0.5231   -15.8939    -1.6109 C.2     
  30 C30            0.6495   -14.6666    -1.0559 C.2     
  31 C31           -0.6225   -16.8493    -1.3971 C.3     
  32 F32           -0.3970   -18.0193    -2.1303 F       
  33 F33           -0.7207   -17.1629    -0.0372 F       
  34 F34           -1.8133   -16.2529    -1.8253 F       
  35 H35           -1.2133    -2.2383    -4.7963 H       
  36 H36           -2.4615    -3.4914    -4.9958 H       
  37 H37           -0.9736    -4.7265    -6.5480 H       
  38 H38            0.2747    -3.4734    -6.3485 H       
  39 H39           -3.3794    -0.9294    -7.4522 H       
  40 H40            2.8042    -7.5399    -4.5772 H       
  41 H41            3.5686    -8.6318    -2.5026 H       
  42 H42            0.0924    -5.2008    -2.2036 H       
  43 H43           -0.4387    -4.4343    -3.7902 H       
  44 H44            2.2102    -7.9151     0.7534 H       
  45 H45            4.5206    -8.7045    -0.8421 H       
  46 H46            3.6675    -9.3670     2.0112 H       
  47 H47            5.2034    -9.8802     1.2724 H       
  48 H48            5.7430    -7.4685     0.8290 H       
  49 H49            4.2571    -7.0105     1.6953 H       
  50 H50            5.0925    -8.1521     3.7319 H       
  51 H51            6.5785    -8.6101     2.8656 H       
  52 H52            6.2311    -6.8951     3.1916 H       
  53 H53            1.5061   -10.2759     0.6564 H       
  54 H54            4.9723   -10.8608    -1.7676 H       
  55 H55            4.0913   -13.1037    -2.3714 H       
  56 H56            1.8411   -17.0156    -2.9888 H       
  57 H57           -0.0509   -14.1964    -0.3815 H       
@<TRIPOS>BOND
   1    1    2 1
   2    1    4 2
   3    1    5 1
   4    2    3 1
   5    2   35 1
   6    2   36 1
   7    3   14 1
   8    3   37 1
   9    3   38 1
  10    5   39 1
  11    6    7 1
  12    6   13 2
  13    6   14 am
  14    7    8 ar
  15    7   12 ar
  16    8    9 ar
  17    8   40 1
  18    9   10 ar
  19    9   41 1
  20   10   11 ar
  21   10   15 1
  22   11   12 ar
  23   12   42 1
  24   14   43 1
  25   15   16 1
  26   15   44 1
  27   16   17 1
  28   16   21 1
  29   16   45 1
  30   17   18 1
  31   17   46 1
  32   17   47 1
  33   18   19 1
  34   18   48 1
  35   18   49 1
  36   19   50 1
  37   19   51 1
  38   19   52 1
  39   20   21 ar
  40   20   25 ar
  41   20   53 1
  42   21   22 ar
  43   22   23 ar
  44   22   54 1
  45   23   24 ar
  46   23   55 1
  47   24   25 ar
  48   24   26 1
  49   26   27 1
  50   26   30 1
  51   27   28 2
  52   28   29 1
  53   28   56 1
  54   29   30 2
  55   29   31 1
  56   30   57 1
  57   31   32 1
  58   31   33 1
  59   31   34 1

#	End of record

