#	Name: ASD01140333
#	Creating user name:	WinNT
#	Creation time:	15. 06. 2019 19:00

#	Modifying user name:	WinNT
#	Modification time:	15. 06. 2019 19:00

#	Program:	/corina/corina34_cracker 3.40 0067  02.08.2006

@<TRIPOS>MOLECULE
ASD01140333
  41   43    0    0    0
SMALL
NO_CHARGES


@<TRIPOS>ATOM
   1 C1            -0.1028     1.5588    -0.1837 C.2     
   2 C2            -0.2094     0.2046    -0.1171 C.2     
   3 C3             0.9479    -0.5782     0.0416 C.2     
   4 C4             2.1613     0.0101     0.1277 C.2     
   5 C5             1.1702     2.1580    -0.0923 C.2     
   6 N6             1.5600     3.4241    -0.1265 N.2     
   7 N7             2.2812     1.3698     0.0621 N.pl3   
   8 C8             3.3632     2.2023     0.1209 C.2     
   9 C9             2.8951     3.4762     0.0019 C.2     
  10 C10            3.7198     4.7099     0.0124 C.ar    
  11 C11            4.9266     4.7502    -0.6830 C.ar    
  12 C12            5.6894     5.9004    -0.6702 C.ar    
  13 C13            5.2579     7.0117     0.0313 C.ar    
  14 C14            4.0610     6.9771     0.7238 C.ar    
  15 C15            3.2875     5.8341     0.7130 C.ar    
  16 C16            4.8030     1.7891     0.2866 C.3     
  17 C17            5.3830     1.4383    -1.0594 C.2     
  18 N18            6.6663     1.0381    -1.1565 N.am    
  19 O19            4.6950     1.5161    -2.0551 O.2     
  20 C20            7.2302     0.6970    -2.4649 C.3     
  21 C21            7.4973     0.9441     0.0463 C.3     
  22 F22            0.8462    -1.9237     0.1086 F       
  23 C23            6.0952     8.2647     0.0416 C.3     
  24 F24            5.7212     9.0842    -1.0288 F       
  25 F25            5.8953     8.9493     1.2451 F       
  26 F26            7.4464     7.9237    -0.0821 F       
  27 H27           -0.9847     2.1692    -0.3099 H       
  28 H28           -1.1784    -0.2673    -0.1854 H       
  29 H29            3.0442    -0.5997     0.2498 H       
  30 H30            5.2645     3.8830    -1.2307 H       
  31 H31            6.6251     5.9326    -1.2086 H       
  32 H32            3.7290     7.8475     1.2701 H       
  33 H33            2.3509     5.8096     1.2503 H       
  34 H34            5.3692     2.6119     0.7229 H       
  35 H35            4.8586     0.9211     0.9436 H       
  36 H36            7.6648     1.5886    -2.9168 H       
  37 H37            8.0034    -0.0612    -2.3409 H       
  38 H38            6.4419     0.3099    -3.1106 H       
  39 H39            6.9101     1.2350     0.9173 H       
  40 H40            7.8448    -0.0818     0.1686 H       
  41 H41            8.3554     1.6090    -0.0520 H       
@<TRIPOS>BOND
   1    1    2 2
   2    1    5 1
   3    1   27 1
   4    2    3 1
   5    2   28 1
   6    3    4 2
   7    3   22 1
   8    4    7 1
   9    4   29 1
  10    5    7 1
  11    5    6 2
  12    6    9 1
  13    7    8 1
  14    8    9 2
  15    8   16 1
  16    9   10 1
  17   10   11 ar
  18   10   15 ar
  19   11   12 ar
  20   11   30 1
  21   12   13 ar
  22   12   31 1
  23   13   14 ar
  24   13   23 1
  25   14   15 ar
  26   14   32 1
  27   15   33 1
  28   16   17 1
  29   16   34 1
  30   16   35 1
  31   17   18 am
  32   17   19 2
  33   18   20 1
  34   18   21 1
  35   20   36 1
  36   20   37 1
  37   20   38 1
  38   21   39 1
  39   21   40 1
  40   21   41 1
  41   23   24 1
  42   23   25 1
  43   23   26 1

#	End of record

