#	Name: ASD01814477
#	Creating user name:	WinNT
#	Creation time:	15. 06. 2019 19:32

#	Modifying user name:	WinNT
#	Modification time:	15. 06. 2019 19:32

#	Program:	/corina/corina34_cracker 3.40 0067  02.08.2006

@<TRIPOS>MOLECULE
ASD01814477
  54   59    0    0    0
SMALL
NO_CHARGES


@<TRIPOS>ATOM
   1 C1            -0.0167     1.3807     0.0096 C.ar    
   2 C2             0.0021    -0.0041     0.0020 C.ar    
   3 N3             1.1326    -0.6807    -0.0120 N.ar    
   4 C4             2.3086    -0.0710    -0.0199 C.ar    
   5 C5             2.3610     1.3370    -0.0133 C.ar    
   6 C6             1.1830     2.0750     0.0019 C.ar    
   7 N7             3.4841    -0.7903    -0.0340 N.pl3   
   8 N8             4.6482    -0.2533    -0.0414 N.2     
   9 C9             4.8546     1.0371    -0.0368 C.2     
  10 C10            3.6943     1.9627    -0.0222 C.2     
  11 C11            3.3984    -2.2528    -0.0406 C.3     
  12 C12            3.3563    -2.7472    -1.4635 C.ar    
  13 C13            4.5327    -3.0470    -2.1361 C.ar    
  14 C14            4.4508    -3.4982    -3.4417 C.ar    
  15 C15            3.1968    -3.6353    -4.0332 C.ar    
  16 N16            2.0956    -3.3374    -3.3556 N.ar    
  17 C17            2.1454    -2.9117    -2.1093 C.ar    
  18 C18            3.0920    -4.1177    -5.4319 C.2     
  19 C19            4.1557    -4.5644    -6.2410 C.2     
  20 N20            3.6655    -4.9058    -7.4028 N.2     
  21 N21            2.2820    -4.6927    -7.3825 N.pl3   
  22 C22            1.9465    -4.2153    -6.1683 C.2     
  23 C23            6.0309     1.9106    -0.0433 C.2     
  24 N24            5.5600     3.1761    -0.0334 N.am    
  25 N25            4.1629     3.1751    -0.0209 N.2     
  26 O26            7.2002     1.5643    -0.0550 O.2     
  27 C27            1.3574    -4.9499    -8.4894 C.3     
  28 C28            6.3588     4.3266    -0.0349 C.ar    
  29 C29            7.3129     4.5098    -1.0262 C.ar    
  30 C30            8.0995     5.6457    -1.0252 C.ar    
  31 C31            7.9380     6.6004    -0.0383 C.ar    
  32 C32            6.9887     6.4227     0.9517 C.ar    
  33 C33            6.1939     5.2913     0.9539 C.ar    
  34 F34            5.2663     5.1177     1.9206 F       
  35 C35            6.8161     7.4661     2.0254 C.3     
  36 H36           -0.9559     1.9138     0.0170 H       
  37 H37           -0.9338    -0.5431     0.0080 H       
  38 H38            1.2020     3.1548     0.0075 H       
  39 H39            4.2702    -2.6701     0.4634 H       
  40 H40            2.4934    -2.5661     0.4799 H       
  41 H41            5.4908    -2.9304    -1.6513 H       
  42 H42            5.3465    -3.7403    -3.9946 H       
  43 H43            1.2281    -2.6791    -1.5888 H       
  44 H44            5.1948    -4.6154    -5.9512 H       
  45 H45            0.9522    -3.9520    -5.8390 H       
  46 H46            0.9851    -5.9721    -8.4219 H       
  47 H47            0.5204    -4.2539    -8.4329 H       
  48 H48            1.8787    -4.8149    -9.4371 H       
  49 H49            7.4406     3.7648    -1.7976 H       
  50 H50            8.8421     5.7879    -1.7963 H       
  51 H51            8.5548     7.4869    -0.0404 H       
  52 H52            6.0780     8.2005     1.7030 H       
  53 H53            6.4764     6.9888     2.9446 H       
  54 H54            7.7692     7.9636     2.2051 H       
@<TRIPOS>BOND
   1    1    2 ar
   2    1    6 ar
   3    1   36 1
   4    2    3 ar
   5    2   37 1
   6    3    4 ar
   7    4    5 ar
   8    4    7 1
   9    5    6 ar
  10    5   10 1
  11    6   38 1
  12    7    8 1
  13    7   11 1
  14    8    9 2
  15    9   10 1
  16    9   23 1
  17   10   25 2
  18   11   12 1
  19   11   39 1
  20   11   40 1
  21   12   13 ar
  22   12   17 ar
  23   13   14 ar
  24   13   41 1
  25   14   15 ar
  26   14   42 1
  27   15   16 ar
  28   15   18 1
  29   16   17 ar
  30   17   43 1
  31   18   19 1
  32   18   22 2
  33   19   20 2
  34   19   44 1
  35   20   21 1
  36   21   22 1
  37   21   27 1
  38   22   45 1
  39   23   24 am
  40   23   26 2
  41   24   25 1
  42   24   28 1
  43   27   46 1
  44   27   47 1
  45   27   48 1
  46   28   29 ar
  47   28   33 ar
  48   29   30 ar
  49   29   49 1
  50   30   31 ar
  51   30   50 1
  52   31   32 ar
  53   31   51 1
  54   32   33 ar
  55   32   35 1
  56   33   34 1
  57   35   52 1
  58   35   53 1
  59   35   54 1

#	End of record

