#	Name: ASD01916004
#	Creating user name:	WinNT
#	Creation time:	15. 06. 2019 20:06

#	Modifying user name:	WinNT
#	Modification time:	15. 06. 2019 20:06

#	Program:	/corina/corina34_cracker 3.40 0067  02.08.2006

@<TRIPOS>MOLECULE
ASD01916004
  42   43    0    0    0
SMALL
NO_CHARGES


@<TRIPOS>ATOM
   1 C1            -0.3170     1.9112    -0.9308 C.ar    
   2 C2            -0.1716     0.5227    -1.0495 C.ar    
   3 C3            -1.2832    -0.2748    -0.8377 C.ar    
   4 C4            -2.5030     0.3282    -0.5152 C.ar    
   5 C5            -3.6952    -0.5142    -0.2872 C.2     
   6 N6            -4.8412     0.0441     0.1504 N.am    
   7 O7            -3.6426    -1.7109    -0.4944 O.2     
   8 C8            -6.0549    -0.7683     0.2647 C.3     
   9 C9            -5.7438    -2.2099    -0.1426 C.3     
  10 C10           -6.5512    -0.7430     1.7118 C.3     
  11 C11           -7.1372    -0.2005    -0.6556 C.3     
  12 C12            0.8028     2.7789    -1.1402 C.1     
  13 C13            1.7208     3.4903    -1.3119 C.1     
  14 C14            2.8405     4.3580    -1.5213 C.ar    
  15 C15            2.6885     5.7419    -1.4013 C.ar    
  16 C16            5.1699     4.6673    -2.0416 C.ar    
  17 C17            3.7733     6.5724    -1.6043 C.ar    
  18 N18           -2.6036     1.6496    -0.4106 N.ar    
  19 C19           -1.5755     2.4396    -0.6099 C.ar    
  20 C20            4.0944     3.8237    -1.8415 C.ar    
  21 C21           -4.8731     1.4635     0.5119 C.3     
  22 F22           -1.1909    -1.6186    -0.9417 F       
  23 C23            5.0103     6.0365    -1.9262 C.ar    
  24 F24            4.2521     2.4867    -1.9541 F       
  25 F25            3.6282     7.9106    -1.4892 F       
  26 H26            0.7837     0.0856    -1.3003 H       
  27 H27           -4.9728    -2.6144     0.5131 H       
  28 H28           -6.6469    -2.8144    -0.0576 H       
  29 H29           -5.3903    -2.2279    -1.1735 H       
  30 H30           -6.7728     0.2840     2.0020 H       
  31 H31           -7.4542    -1.3475     1.7968 H       
  32 H32           -5.7801    -1.1475     2.3675 H       
  33 H33           -6.7837    -0.2185    -1.6865 H       
  34 H34           -8.0403    -0.8050    -0.5706 H       
  35 H35           -7.3588     0.8265    -0.3654 H       
  36 H36            1.7252     6.1610    -1.1509 H       
  37 H37            6.1369     4.2569    -2.2927 H       
  38 H38           -1.6974     3.5086    -0.5156 H       
  39 H39           -5.0349     2.0630    -0.3840 H       
  40 H40           -5.6838     1.6403     1.2187 H       
  41 H41           -3.9244     1.7432     0.9698 H       
  42 H42            5.8549     6.6909    -2.0834 H       
@<TRIPOS>BOND
   1    1    2 ar
   2    1   12 1
   3    1   19 ar
   4    2    3 ar
   5    2   26 1
   6    3    4 ar
   7    3   22 1
   8    4   18 ar
   9    4    5 1
  10    5    6 am
  11    5    7 2
  12    6    8 1
  13    6   21 1
  14    8    9 1
  15    8   10 1
  16    8   11 1
  17    9   27 1
  18    9   28 1
  19    9   29 1
  20   10   30 1
  21   10   31 1
  22   10   32 1
  23   11   33 1
  24   11   34 1
  25   11   35 1
  26   12   13 3
  27   13   14 1
  28   14   15 ar
  29   14   20 ar
  30   15   17 ar
  31   15   36 1
  32   16   23 ar
  33   16   20 ar
  34   16   37 1
  35   17   25 1
  36   17   23 ar
  37   18   19 ar
  38   19   38 1
  39   20   24 1
  40   21   39 1
  41   21   40 1
  42   21   41 1
  43   23   42 1

#	End of record

