#	Name: ASD01000059
#	Creating user name:	WinNT
#	Creation time:	15. 06. 2019 18:54

#	Modifying user name:	WinNT
#	Modification time:	15. 06. 2019 18:54

#	Program:	/corina/corina34_cracker 3.40 0067  02.08.2006

@<TRIPOS>MOLECULE
ASD01000059
  53   55    0    0    0
SMALL
NO_CHARGES


@<TRIPOS>ATOM
   1 C1             2.4841     1.5665     0.4233 C.ar    
   2 C2             2.4224     0.2302     0.0748 C.ar    
   3 C3             1.4177    -0.5712     0.5840 C.ar    
   4 C4             0.4751    -0.0365     1.4422 C.ar    
   5 C5             0.5373     1.2995     1.7914 C.ar    
   6 C6             1.5411     2.1013     1.2811 C.ar    
   7 C7             1.3499    -2.0277     0.2032 C.3     
   8 C8             0.7581    -2.8176     1.3420 C.ar    
   9 C9             1.2927    -2.7060     2.6119 C.ar    
  10 C10            0.7499    -3.4306     3.6565 C.ar    
  11 C11           -0.3278    -4.2665     3.4313 C.ar    
  12 C12           -0.8630    -4.3775     2.1616 C.ar    
  13 C13           -0.3229    -3.6496     1.1179 C.ar    
  14 S14            0.3098    -2.2196    -1.2705 S.3     
  15 C15           -1.2487    -1.4345    -0.7751 C.3     
  16 C16           -2.2714    -1.5736    -1.9046 C.3     
  17 N17           -1.7564    -0.9192    -3.1148 N.3     
  18 C18            2.7591    -2.5427    -0.0966 C.3     
  19 C19            2.7060    -4.0484    -0.3628 C.3     
  20 C20            4.0697    -4.5326    -0.7834 C.ar    
  21 C21            4.9729    -4.9669     0.1687 C.ar    
  22 C22            6.2238    -5.4110    -0.2171 C.ar    
  23 C23            6.5714    -5.4212    -1.5550 C.ar    
  24 C24            5.6678    -4.9877    -2.5072 C.ar    
  25 C25            4.4154    -4.5477    -2.1217 C.ar    
  26 C26           -3.5661    -0.9213    -1.4930 C.2     
  27 O27           -3.8366     0.1875    -1.8894 O.2     
  28 O28           -4.4187    -1.5722    -0.6861 O.3     
  29 H29            3.2716     2.1916     0.0290 H       
  30 H30            3.1588    -0.1875    -0.5957 H       
  31 H31           -0.3102    -0.6625     1.8394 H       
  32 H32           -0.1995     1.7174     2.4613 H       
  33 H33            1.5900     3.1450     1.5543 H       
  34 H34            2.1347    -2.0529     2.7879 H       
  35 H35            1.1681    -3.3439     4.6485 H       
  36 H36           -0.7514    -4.8331     4.2473 H       
  37 H37           -1.7047    -5.0308     1.9856 H       
  38 H38           -0.7410    -3.7363     0.1259 H       
  39 H39           -1.6308    -1.9200     0.1228 H       
  40 H40           -1.0744    -0.3781    -0.5708 H       
  41 H41           -2.4456    -2.6300    -2.1089 H       
  42 H42           -2.3846    -1.0525    -3.8930 H       
  43 H43           -1.5867     0.0619    -2.9510 H       
  44 H44            3.1533    -2.0320    -0.9752 H       
  45 H45            3.4067    -2.3475     0.7582 H       
  46 H46            2.4003    -4.5675     0.5456 H       
  47 H47            1.9874    -4.2519    -1.1568 H       
  48 H48            4.7013    -4.9590     1.2140 H       
  49 H49            6.9297    -5.7497     0.5268 H       
  50 H50            7.5490    -5.7675    -1.8564 H       
  51 H51            5.9395    -4.9954    -3.5524 H       
  52 H52            3.7094    -4.2090    -2.8656 H       
  53 H53           -5.2363    -1.1132    -0.4495 H       
@<TRIPOS>BOND
   1    1    2 ar
   2    1    6 ar
   3    1   29 1
   4    2    3 ar
   5    2   30 1
   6    3    4 ar
   7    3    7 1
   8    4    5 ar
   9    4   31 1
  10    5    6 ar
  11    5   32 1
  12    6   33 1
  13    7    8 1
  14    7   14 1
  15    7   18 1
  16    8    9 ar
  17    8   13 ar
  18    9   10 ar
  19    9   34 1
  20   10   11 ar
  21   10   35 1
  22   11   12 ar
  23   11   36 1
  24   12   13 ar
  25   12   37 1
  26   13   38 1
  27   14   15 1
  28   15   16 1
  29   15   39 1
  30   15   40 1
  31   16   26 1
  32   16   17 1
  33   16   41 1
  34   17   42 1
  35   17   43 1
  36   18   19 1
  37   18   44 1
  38   18   45 1
  39   19   20 1
  40   19   46 1
  41   19   47 1
  42   20   21 ar
  43   20   25 ar
  44   21   22 ar
  45   21   48 1
  46   22   23 ar
  47   22   49 1
  48   23   24 ar
  49   23   50 1
  50   24   25 ar
  51   24   51 1
  52   25   52 1
  53   26   27 2
  54   26   28 1
  55   28   53 1

#	End of record

