#	Name: ASD02030362
#	Creating user name:	WinNT
#	Creation time:	15. 06. 2019 20:15

#	Modifying user name:	WinNT
#	Modification time:	15. 06. 2019 20:15

#	Program:	/corina/corina34_cracker 3.40 0067  02.08.2006

@<TRIPOS>MOLECULE
ASD02030362
  34   35    0    0    0
SMALL
NO_CHARGES


@<TRIPOS>ATOM
   1 N1            -0.3716     1.4693    -0.9636 N.3     
   2 C2            -0.3560     0.0006    -0.9848 C.3     
   3 C3             0.6491    -0.4812    -2.0363 C.3     
   4 N4             1.9491     0.1507    -1.7641 N.am    
   5 C5             1.9908     1.6109    -1.5930 C.3     
   6 C6             0.9328     2.0103    -0.5589 C.3     
   7 C7             3.0722    -0.5888    -1.6733 C.2     
   8 O8             4.1531    -0.0425    -1.5742 O.2     
   9 C9             2.9889    -2.0679    -1.6943 C.ar    
  10 N10            1.8467    -2.6671    -1.3774 N.ar    
  11 C11            1.7314    -3.9813    -1.3839 C.ar    
  12 C12            2.8124    -4.7895    -1.7261 C.ar    
  13 C13            4.0187    -4.2007    -2.0622 C.ar    
  14 C14            4.1067    -2.8162    -2.0514 C.ar    
  15 O15            0.5459    -4.5519    -1.0530 O.3     
  16 C16           -0.5254    -3.6703    -0.7109 C.3     
  17 C17            0.8496     3.5358    -0.4766 C.3     
  18 H18           -0.6555     1.8409    -1.8577 H       
  19 H19           -0.0639    -0.3742    -0.0038 H       
  20 H20           -1.3500    -0.3701    -1.2350 H       
  21 H21            0.7493    -1.5650    -1.9776 H       
  22 H22            0.3043    -0.1959    -3.0302 H       
  23 H23            2.9781     1.9103    -1.2412 H       
  24 H24            1.7750     2.0973    -2.5443 H       
  25 H25            1.2070     1.6075     0.4161 H       
  26 H26            2.7105    -5.8647    -1.7289 H       
  27 H27            4.8719    -4.8057    -2.3312 H       
  28 H28            5.0336    -2.3253    -2.3090 H       
  29 H29           -0.2393    -3.0683     0.1516 H       
  30 H30           -0.7411    -3.0158    -1.5554 H       
  31 H31           -1.4131    -4.2543    -0.4679 H       
  32 H32            0.5743     3.9378    -1.4517 H       
  33 H33            0.0970     3.8195     0.2590 H       
  34 H34            1.8183     3.9370    -0.1786 H       
@<TRIPOS>BOND
   1    1    2 1
   2    1    6 1
   3    1   18 1
   4    2    3 1
   5    2   19 1
   6    2   20 1
   7    3    4 1
   8    3   21 1
   9    3   22 1
  10    4    5 1
  11    4    7 am
  12    5    6 1
  13    5   23 1
  14    5   24 1
  15    6   17 1
  16    6   25 1
  17    7    8 2
  18    7    9 1
  19    9   10 ar
  20    9   14 ar
  21   10   11 ar
  22   11   12 ar
  23   11   15 1
  24   12   13 ar
  25   12   26 1
  26   13   14 ar
  27   13   27 1
  28   14   28 1
  29   15   16 1
  30   16   29 1
  31   16   30 1
  32   16   31 1
  33   17   32 1
  34   17   33 1
  35   17   34 1

#	End of record

