#	Name: ASD01880086
#	Creating user name:	WinNT
#	Creation time:	15. 06. 2019 19:40

#	Modifying user name:	WinNT
#	Modification time:	15. 06. 2019 19:40

#	Program:	/corina/corina34_cracker 3.40 0067  02.08.2006

@<TRIPOS>MOLECULE
ASD01880086
  49   51    0    0    0
SMALL
NO_CHARGES


@<TRIPOS>ATOM
   1 C1            -0.1819     1.2782    -1.3610 C.ar    
   2 C2            -0.1283    -0.0943    -1.5124 C.ar    
   3 N3             0.9844    -0.7574    -1.2642 N.ar    
   4 C4             2.0822    -0.1453    -0.8656 C.ar    
   5 C5             2.1040     1.2259    -0.6926 C.ar    
   6 C6             0.9531     1.9568    -0.9434 C.ar    
   7 C7             3.3628     1.9175    -0.2363 C.3     
   8 N8             4.1598     2.3014    -1.4040 N.am    
   9 C9             3.8978     3.5043    -2.0636 C.ar    
  10 S10            5.3715     1.3090    -1.9420 S.o2    
  11 C11            4.5612     0.2133    -3.1392 C.3     
  12 O12            6.2758     2.1853    -2.6005 O.2     
  13 O13            5.7667     0.5809    -0.7875 O.2     
  14 C14            3.2953     4.5531    -1.3829 C.ar    
  15 C15            3.0369     5.7454    -2.0410 C.ar    
  16 C16            3.3807     5.8878    -3.3779 C.ar    
  17 C17            3.9806     4.8423    -4.0543 C.ar    
  18 C18            4.2451     3.6547    -3.4008 C.ar    
  19 O19            2.4467     6.7741    -1.3775 O.3     
  20 C20            2.0995     7.9277    -2.1461 C.3     
  21 C21            0.9578     8.6958    -1.4576 C.3     
  22 C22            1.5037    10.1025    -1.1367 C.3     
  23 C23            2.6577    10.3024    -2.1503 C.3     
  24 C24            3.2995     8.8944    -2.2196 C.3     
  25 C25            5.5328    -0.8920    -3.5579 C.3     
  26 F26            5.9120    -1.6307    -2.4319 F       
  27 F27            4.9079    -1.7371    -4.4812 F       
  28 F28            6.6668    -0.3190    -4.1433 F       
  29 H29           -1.0949     1.8161    -1.5697 H       
  30 H30           -1.0078    -0.6302    -1.8373 H       
  31 H31            2.9744    -0.7220    -0.6717 H       
  32 H32            0.9407     3.0293    -0.8167 H       
  33 H33            3.1013     2.8088     0.3341 H       
  34 H34            3.9417     1.2408     0.3922 H       
  35 H35            3.6777    -0.2332    -2.6831 H       
  36 H36            4.2658     0.7888    -4.0165 H       
  37 H37            3.0281     4.4404    -0.3426 H       
  38 H38            3.1789     6.8166    -3.8906 H       
  39 H39            4.2468     4.9558    -5.0949 H       
  40 H40            4.7142     2.8394    -3.9315 H       
  41 H41            1.7970     7.6299    -3.1501 H       
  42 H42            0.1014     8.7715    -2.1277 H       
  43 H43            0.6684     8.1886    -0.5372 H       
  44 H44            0.7298    10.8553    -1.2864 H       
  45 H45            1.8822    10.1409    -0.1152 H       
  46 H46            2.2691    10.5982    -3.1247 H       
  47 H47            3.3742    11.0357    -1.7801 H       
  48 H48            3.9680     8.7378    -1.3730 H       
  49 H49            3.8361     8.7656    -3.1596 H       
@<TRIPOS>BOND
   1    1    2 ar
   2    1    6 ar
   3    1   29 1
   4    2    3 ar
   5    2   30 1
   6    3    4 ar
   7    4    5 ar
   8    4   31 1
   9    5    6 ar
  10    5    7 1
  11    6   32 1
  12    7    8 1
  13    7   33 1
  14    7   34 1
  15    8    9 1
  16    8   10 am
  17    9   14 ar
  18    9   18 ar
  19   10   11 1
  20   10   12 2
  21   10   13 2
  22   11   25 1
  23   11   35 1
  24   11   36 1
  25   14   15 ar
  26   14   37 1
  27   15   16 ar
  28   15   19 1
  29   16   17 ar
  30   16   38 1
  31   17   18 ar
  32   17   39 1
  33   18   40 1
  34   19   20 1
  35   20   21 1
  36   20   24 1
  37   20   41 1
  38   21   22 1
  39   21   42 1
  40   21   43 1
  41   22   23 1
  42   22   44 1
  43   22   45 1
  44   23   24 1
  45   23   46 1
  46   23   47 1
  47   24   48 1
  48   24   49 1
  49   25   26 1
  50   25   27 1
  51   25   28 1

#	End of record

