#	Name: ASD04910021
#	Creating user name:	WinNT
#	Creation time:	15. 06. 2019 20:55

#	Modifying user name:	WinNT
#	Modification time:	15. 06. 2019 20:55

#	Program:	/corina/corina34_cracker 3.40 0067  02.08.2006

@<TRIPOS>MOLECULE
ASD04910021
  64   66    0    0    0
SMALL
NO_CHARGES


@<TRIPOS>ATOM
   1 C1             1.1481     1.7704    -0.6346 C.2     
   2 C2             0.9840     0.2724    -0.6262 C.3     
   3 C3             2.3343    -0.3870    -0.3388 C.3     
   4 O4             2.2337     2.2604    -0.4316 O.2     
   5 O5             0.0893     2.5603    -0.8732 O.3     
   6 C6             3.2390    -2.6364    -0.0965 C.2     
   7 C7             3.0779    -4.1061    -0.0882 C.ar    
   8 C8             4.1780    -4.9303     0.1538 C.ar    
   9 C9             4.0208    -6.3009     0.1606 C.ar    
  10 C10            2.7762    -6.8587    -0.0722 C.ar    
  11 C11            1.6817    -6.0473    -0.3128 C.ar    
  12 C12            1.8241    -4.6751    -0.3167 C.ar    
  13 O13            4.3311    -2.1435     0.1077 O.2     
  14 N14            2.1748    -1.8432    -0.3306 N.am    
  15 C15            2.6122    -8.3568    -0.0642 C.3     
  16 C16            2.0351    -8.7994     1.2818 C.3     
  17 C17            1.9848   -10.3276     1.3374 C.3     
  18 C18            1.4077   -10.7703     2.6835 C.3     
  19 O19            1.7236    -8.7442    -1.1141 O.3     
  20 C20            1.9706    -9.9336    -1.7242 C.ar    
  21 C21            3.0891   -10.6749    -1.3714 C.ar    
  22 C22            3.3402   -11.8832    -1.9905 C.ar    
  23 C23            2.4732   -12.3564    -2.9662 C.ar    
  24 C24            1.3542   -11.6143    -3.3189 C.ar    
  25 C25            1.1011   -10.4086    -2.6955 C.ar    
  26 N26            2.7282   -13.5839    -3.5958 N.pl3   
  27 N27            3.9094   -13.9406    -4.2592 N.2     
  28 C28            3.7707   -15.1599    -4.7146 C.2     
  29 C29            2.4986   -15.6190    -4.3568 C.2     
  30 C30            1.8796   -14.6341    -3.6649 C.2     
  31 C31            1.9217   -16.9733    -4.6792 C.3     
  32 F32            2.8594   -17.7197    -5.4010 F       
  33 F33            1.6087   -17.6418    -3.4908 F       
  34 F34            0.7617   -16.8158    -5.4452 F       
  35 C35            0.4127   -12.1273    -4.3779 C.3     
  36 C36            4.5553   -12.6881    -1.6075 C.3     
  37 H37            0.2696    -0.0104     0.1470 H       
  38 H38            0.6176    -0.0584    -1.5980 H       
  39 H39            3.0487    -0.1041    -1.1119 H       
  40 H40            2.7007    -0.0561     0.6330 H       
  41 H41            0.2437     3.5148    -0.8684 H       
  42 H42            5.1502    -4.4962     0.3350 H       
  43 H43            4.8712    -6.9399     0.3478 H       
  44 H44            0.7129    -6.4890    -0.4938 H       
  45 H45            0.9681    -4.0427    -0.5002 H       
  46 H46            1.3032    -2.2366    -0.4935 H       
  47 H47            3.5826    -8.8293    -0.2166 H       
  48 H48            2.6669    -8.4271     2.0882 H       
  49 H49            1.0278    -8.3985     1.3948 H       
  50 H50            1.3530   -10.6999     0.5311 H       
  51 H51            2.9921   -10.7286     1.2244 H       
  52 H52            1.3719   -11.8590     2.7231 H       
  53 H53            2.0396   -10.3979     3.4898 H       
  54 H54            0.4005   -10.3693     2.7965 H       
  55 H55            3.7636   -10.3066    -0.6126 H       
  56 H56            0.2282    -9.8333    -2.9666 H       
  57 H57            4.5108   -15.7157    -5.2712 H       
  58 H58            0.8853   -14.6782    -3.2456 H       
  59 H59           -0.3872   -12.6987    -3.9070 H       
  60 H60           -0.0143   -11.2856    -4.9231 H       
  61 H61            0.9588   -12.7688    -5.0696 H       
  62 H62            4.3129   -13.3322    -0.7623 H       
  63 H63            4.8668   -13.3006    -2.4535 H       
  64 H64            5.3651   -12.0135    -1.3296 H       
@<TRIPOS>BOND
   1    1    2 1
   2    1    4 2
   3    1    5 1
   4    2    3 1
   5    2   37 1
   6    2   38 1
   7    3   14 1
   8    3   39 1
   9    3   40 1
  10    5   41 1
  11    6    7 1
  12    6   13 2
  13    6   14 am
  14    7    8 ar
  15    7   12 ar
  16    8    9 ar
  17    8   42 1
  18    9   10 ar
  19    9   43 1
  20   10   11 ar
  21   10   15 1
  22   11   12 ar
  23   11   44 1
  24   12   45 1
  25   14   46 1
  26   15   16 1
  27   15   19 1
  28   15   47 1
  29   16   17 1
  30   16   48 1
  31   16   49 1
  32   17   18 1
  33   17   50 1
  34   17   51 1
  35   18   52 1
  36   18   53 1
  37   18   54 1
  38   19   20 1
  39   20   21 ar
  40   20   25 ar
  41   21   22 ar
  42   21   55 1
  43   22   23 ar
  44   22   36 1
  45   23   24 ar
  46   23   26 1
  47   24   25 ar
  48   24   35 1
  49   25   56 1
  50   26   27 1
  51   26   30 1
  52   27   28 2
  53   28   29 1
  54   28   57 1
  55   29   30 2
  56   29   31 1
  57   30   58 1
  58   31   32 1
  59   31   33 1
  60   31   34 1
  61   35   59 1
  62   35   60 1
  63   35   61 1
  64   36   62 1
  65   36   63 1
  66   36   64 1

#	End of record

