#	Name: ASD02198463
#	Creating user name:	WinNT
#	Creation time:	15. 06. 2019 20:19

#	Modifying user name:	WinNT
#	Modification time:	15. 06. 2019 20:19

#	Program:	/corina/corina34_cracker 3.40 0067  02.08.2006

@<TRIPOS>MOLECULE
ASD02198463
  41   44    0    0    0
SMALL
NO_CHARGES


@<TRIPOS>ATOM
   1 C1             0.1902     1.3972    -0.2107 C.2     
   2 S2             1.5470     3.7909    -0.0203 S.o2    
   3 C3             1.3598     2.0431    -0.1419 C.2     
   4 O4             2.8438     4.0911    -0.5177 O.2     
   5 O5             0.3591     4.3598    -0.5536 O.2     
   6 C6             2.5437     3.6336     2.4224 C.ar    
   7 C7             3.8259     3.4370     1.9521 C.ar    
   8 C8             4.8098     2.9053     2.7787 C.ar    
   9 C9             4.5386     2.5655     4.0694 C.ar    
  10 C10            3.2464     2.7495     4.5891 C.ar    
  11 C11            2.2362     3.2899     3.7556 C.ar    
  12 N12            1.5649     4.1710     1.5914 N.am    
  13 N13            2.9595     2.4227     5.8540 N.ar    
  14 C14            1.7557     2.5922     6.3455 C.ar    
  15 C15            0.7191     3.1183     5.5791 C.ar    
  16 C16            0.9449     3.4727     4.2784 C.ar    
  17 C17            0.2848     0.0261    -0.3009 C.2     
  18 C18            1.5464    -0.4535    -0.3058 C.2     
  19 S19            2.6821     0.8848    -0.1911 S.3     
  20 C20            1.9157    -1.8792    -0.3932 C.ar    
  21 N21            0.9735    -2.8191    -0.4764 N.ar    
  22 C22            1.3044    -4.0988    -0.5554 C.ar    
  23 N23            2.5705    -4.4924    -0.5549 N.ar    
  24 C24            3.5588    -3.6140    -0.4748 C.ar    
  25 C25            3.2622    -2.2670    -0.3960 C.ar    
  26 S26            0.0292    -5.3100    -0.6633 S.3     
  27 C27            1.0313    -6.8152    -0.7434 C.3     
  28 H28           -0.7586     1.9128    -0.1923 H       
  29 H29            4.0676     3.6981     0.9324 H       
  30 H30            5.8068     2.7590     2.3900 H       
  31 H31            5.3176     2.1537     4.6939 H       
  32 H32            0.8933     4.7682     1.9563 H       
  33 H33            1.5632     2.3162     7.3717 H       
  34 H34           -0.2623     3.2458     6.0117 H       
  35 H35            0.1526     3.8823     3.6694 H       
  36 H36           -0.5823    -0.6148    -0.3625 H       
  37 H37            4.5861    -3.9472    -0.4753 H       
  38 H38            4.0496    -1.5307    -0.3299 H       
  39 H39            1.6788    -6.7744    -1.6193 H       
  40 H40            1.6416    -6.8936     0.1563 H       
  41 H41            0.3769    -7.6839    -0.8153 H       
@<TRIPOS>BOND
   1    1   17 1
   2    1    3 2
   3    1   28 1
   4    2    3 1
   5    2    4 2
   6    2    5 2
   7    2   12 am
   8    3   19 1
   9    6    7 ar
  10    6   11 ar
  11    6   12 1
  12    7    8 ar
  13    7   29 1
  14    8    9 ar
  15    8   30 1
  16    9   10 ar
  17    9   31 1
  18   10   11 ar
  19   10   13 ar
  20   11   16 ar
  21   12   32 1
  22   13   14 ar
  23   14   15 ar
  24   14   33 1
  25   15   16 ar
  26   15   34 1
  27   16   35 1
  28   17   18 2
  29   17   36 1
  30   18   19 1
  31   18   20 1
  32   20   21 ar
  33   20   25 ar
  34   21   22 ar
  35   22   23 ar
  36   22   26 1
  37   23   24 ar
  38   24   25 ar
  39   24   37 1
  40   25   38 1
  41   26   27 1
  42   27   39 1
  43   27   40 1
  44   27   41 1

#	End of record

