#	Name: ASD01410116
#	Creating user name:	WinNT
#	Creation time:	15. 06. 2019 19:16

#	Modifying user name:	WinNT
#	Modification time:	15. 06. 2019 19:16

#	Program:	/corina/corina34_cracker 3.40 0067  02.08.2006

@<TRIPOS>MOLECULE
ASD01410116
  84   88    0    0    0
SMALL
NO_CHARGES


@<TRIPOS>ATOM
   1 C1            -1.0641     1.6640    -0.9445 C.ar    
   2 C2            -1.1317     0.2681    -1.0661 C.ar    
   3 C3            -2.3279    -0.3748    -0.9735 C.ar    
   4 C4            -3.5034     0.3579    -0.7552 C.ar    
   5 C5            -3.4454     1.7616    -0.6317 C.ar    
   6 C6            -2.2231     2.4072    -0.7215 C.ar    
   7 C7            -4.8630    -0.0096    -0.6156 C.2     
   8 C8            -5.5821     1.1250    -0.4178 C.2     
   9 N9            -4.7352     2.2078    -0.4251 N.pl3   
  10 C10           -7.0464     1.1863    -0.2256 C.ar    
  11 C11           -5.4145    -1.4107    -0.6763 C.3     
  12 C12           -5.0935    -2.0266    -2.0396 C.3     
  13 C13           -5.6534    -3.4491    -2.1012 C.3     
  14 C14           -5.0175    -4.2957    -0.9967 C.3     
  15 C15           -5.3385    -3.6799     0.3666 C.3     
  16 C16           -4.7786    -2.2573     0.4282 C.3     
  17 C17            0.2376     2.3475    -1.0468 C.2     
  18 O18            1.3599     1.6315    -1.2568 O.3     
  19 C19           -5.1358     3.6053    -0.2440 C.3     
  20 C20           -5.0941     3.9539     1.2216 C.2     
  21 N21           -5.4253     5.1952     1.6287 N.am    
  22 O22            0.2989     3.5566    -0.9419 O.2     
  23 O23           -4.7624     3.1173     2.0347 O.2     
  24 C24           -5.3921     5.5590     3.0542 C.3     
  25 C25           -4.5874     6.8551     3.2038 C.3     
  26 O26           -5.1106     7.8399     2.3092 O.3     
  27 C27           -5.0042     7.4906     0.9270 C.3     
  28 C28           -5.8249     6.2286     0.6603 C.3     
  29 C29           -7.5870     1.9862     0.7830 C.ar    
  30 C30           -8.9529     2.0407     0.9591 C.ar    
  31 C31           -9.7912     1.3012     0.1348 C.ar    
  32 C32           -9.2573     0.5044    -0.8696 C.ar    
  33 C33           -7.8928     0.4490    -1.0558 C.ar    
  34 O34          -11.1369     1.3572     0.3118 O.3     
  35 C35          -11.9406     0.5717    -0.5709 C.3     
  36 C36           -4.6978     7.3620     4.6431 C.3     
  37 N37           -3.9264     8.6040     4.7855 N.3     
  38 C38           -4.1969     9.2465     6.0785 C.3     
  39 C39           -5.5659     9.9281     6.0328 C.3     
  40 C40           -2.4892     8.3538     4.6124 C.3     
  41 C41           -1.7658     9.6805     4.3728 C.3     
  42 H42           -0.2289    -0.3001    -1.2346 H       
  43 H43           -2.3717    -1.4497    -1.0685 H       
  44 H44           -2.1690     3.4818    -0.6282 H       
  45 H45           -6.4950    -1.3823    -0.5358 H       
  46 H46           -5.5465    -1.4235    -2.8265 H       
  47 H47           -4.0129    -2.0550    -2.1801 H       
  48 H48           -6.7339    -3.4207    -1.9607 H       
  49 H49           -5.4247    -3.8879    -3.0724 H       
  50 H50           -5.4164    -5.3092    -1.0405 H       
  51 H51           -3.9370    -4.3241    -1.1372 H       
  52 H52           -6.4191    -3.6514     0.5071 H       
  53 H53           -4.8855    -4.2830     1.1535 H       
  54 H54           -3.6981    -2.2857     0.2877 H       
  55 H55           -5.0073    -1.8186     1.3994 H       
  56 H56            2.1900     2.1239    -1.3167 H       
  57 H57           -4.4512     4.2533    -0.7912 H       
  58 H58           -6.1486     3.7449    -0.6219 H       
  59 H59           -6.4081     5.7137     3.4173 H       
  60 H60           -4.9149     4.7626     3.6253 H       
  61 H61           -3.5415     6.6641     2.9635 H       
  62 H62           -5.3828     8.3088     0.3145 H       
  63 H63           -3.9599     7.3018     0.6785 H       
  64 H64           -5.6368     5.8759    -0.3538 H       
  65 H65           -6.8856     6.4479     0.7825 H       
  66 H66           -6.9357     2.5612     1.4246 H       
  67 H67           -9.3718     2.6589     1.7392 H       
  68 H68           -9.9125    -0.0694    -1.5083 H       
  69 H69           -7.4784    -0.1707    -1.8373 H       
  70 H70          -12.9930     0.7074    -0.3216 H       
  71 H71          -11.7670     0.8887    -1.5992 H       
  72 H72          -11.6748    -0.4801    -0.4651 H       
  73 H73           -5.7439     7.5548     4.8812 H       
  74 H74           -4.3029     6.6088     5.3249 H       
  75 H75           -4.1921     8.4934     6.8665 H       
  76 H76           -3.4271     9.9908     6.2825 H       
  77 H77           -5.8044    10.3308     7.0172 H       
  78 H78           -5.5441    10.7386     5.3043 H       
  79 H79           -6.3246     9.2006     5.7443 H       
  80 H80           -2.0921     7.8804     5.5103 H       
  81 H81           -2.3353     7.6964     3.7567 H       
  82 H82           -2.2251    10.1978     3.5304 H       
  83 H83           -1.8410    10.3017     5.2653 H       
  84 H84           -0.7161     9.4873     4.1520 H       
@<TRIPOS>BOND
   1    1    2 ar
   2    1   17 1
   3    1    6 ar
   4    2    3 ar
   5    2   42 1
   6    3    4 ar
   7    3   43 1
   8    4    5 ar
   9    4    7 1
  10    5    6 ar
  11    5    9 1
  12    6   44 1
  13    7    8 2
  14    7   11 1
  15    8    9 1
  16    8   10 1
  17    9   19 1
  18   10   29 ar
  19   10   33 ar
  20   11   12 1
  21   11   16 1
  22   11   45 1
  23   12   13 1
  24   12   46 1
  25   12   47 1
  26   13   14 1
  27   13   48 1
  28   13   49 1
  29   14   15 1
  30   14   50 1
  31   14   51 1
  32   15   16 1
  33   15   52 1
  34   15   53 1
  35   16   54 1
  36   16   55 1
  37   17   18 1
  38   17   22 2
  39   18   56 1
  40   19   20 1
  41   19   57 1
  42   19   58 1
  43   20   21 am
  44   20   23 2
  45   21   24 1
  46   21   28 1
  47   24   25 1
  48   24   59 1
  49   24   60 1
  50   25   26 1
  51   25   36 1
  52   25   61 1
  53   26   27 1
  54   27   28 1
  55   27   62 1
  56   27   63 1
  57   28   64 1
  58   28   65 1
  59   29   30 ar
  60   29   66 1
  61   30   31 ar
  62   30   67 1
  63   31   32 ar
  64   31   34 1
  65   32   33 ar
  66   32   68 1
  67   33   69 1
  68   34   35 1
  69   35   70 1
  70   35   71 1
  71   35   72 1
  72   36   37 1
  73   36   73 1
  74   36   74 1
  75   37   38 1
  76   37   40 1
  77   38   39 1
  78   38   75 1
  79   38   76 1
  80   39   77 1
  81   39   78 1
  82   39   79 1
  83   40   41 1
  84   40   80 1
  85   40   81 1
  86   41   82 1
  87   41   83 1
  88   41   84 1

#	End of record

