#	Name: ASD08070041
#	Creating user name:	WinNT
#	Creation time:	15. 06. 2019 21:14

#	Modifying user name:	WinNT
#	Modification time:	15. 06. 2019 21:14

#	Program:	/corina/corina34_cracker 3.40 0067  02.08.2006

@<TRIPOS>MOLECULE
ASD08070041
  37   37    0    0    0
SMALL
NO_CHARGES


@<TRIPOS>ATOM
   1 C1            -0.0165     1.3623     0.0095 C.2     
   2 C2             0.0021    -0.0041     0.0020 C.2     
   3 C3             1.1658     2.2288     0.0029 C.2     
   4 N4             1.0194     3.5685     0.0115 N.am    
   5 O5             2.2796     1.7384    -0.0104 O.2     
   6 C6             2.2011     4.4345     0.0049 C.3     
   7 C7            -1.2530    -0.5649     0.0110 C.2     
   8 C8            -2.2656     0.3099     0.0254 C.2     
   9 S9            -1.6858     1.9145     0.0208 S.3     
  10 C10           -3.7235    -0.0714     0.0368 C.3     
  11 C11            2.6730     4.6423    -1.4356 C.3     
  12 C12            1.8455     5.7872     0.6252 C.3     
  13 C13            1.4932     5.5944     2.1015 C.3     
  14 C14            3.1461     3.3076    -2.0148 C.3     
  15 C15            1.1376     6.9471     2.7219 C.3     
  16 C16            3.6181     3.5154    -3.4553 C.3     
  17 H17            0.9121    -0.5855    -0.0101 H       
  18 H18            0.1317     3.9594     0.0221 H       
  19 H19            2.9973     3.9672     0.5842 H       
  20 H20           -1.4103    -1.6334     0.0064 H       
  21 H21           -4.0654    -0.1691     1.0672 H       
  22 H22           -4.3049     0.7006    -0.4673 H       
  23 H23           -3.8547    -1.0215    -0.4811 H       
  24 H24            1.8487     5.0272    -2.0361 H       
  25 H25            3.4964     5.3564    -1.4488 H       
  26 H26            2.6978     6.4613     0.5400 H       
  27 H27            0.9908     6.2141     0.1005 H       
  28 H28            0.6409     4.9203     2.1867 H       
  29 H29            2.3479     5.1675     2.6263 H       
  30 H30            3.9704     2.9228    -1.4144 H       
  31 H31            2.3227     2.5935    -2.0017 H       
  32 H32            0.8867     6.8097     3.7737 H       
  33 H33            1.9900     7.6211     2.6367 H       
  34 H34            0.2829     7.3740     2.1972 H       
  35 H35            2.7938     3.9002    -4.0558 H       
  36 H36            4.4415     4.2295    -3.4685 H       
  37 H37            3.9552     2.5645    -3.8680 H       
@<TRIPOS>BOND
   1    1    2 2
   2    1    3 1
   3    1    9 1
   4    2    7 1
   5    2   17 1
   6    3    4 am
   7    3    5 2
   8    4    6 1
   9    4   18 1
  10    6   11 1
  11    6   12 1
  12    6   19 1
  13    7    8 2
  14    7   20 1
  15    8    9 1
  16    8   10 1
  17   10   21 1
  18   10   22 1
  19   10   23 1
  20   11   14 1
  21   11   24 1
  22   11   25 1
  23   12   13 1
  24   12   26 1
  25   12   27 1
  26   13   15 1
  27   13   28 1
  28   13   29 1
  29   14   16 1
  30   14   30 1
  31   14   31 1
  32   15   32 1
  33   15   33 1
  34   15   34 1
  35   16   35 1
  36   16   36 1
  37   16   37 1

#	End of record

