#	Name: ASD07931684
#	Creating user name:	WinNT
#	Creation time:	15. 06. 2019 21:13

#	Modifying user name:	WinNT
#	Modification time:	15. 06. 2019 21:13

#	Program:	/corina/corina34_cracker 3.40 0067  02.08.2006

@<TRIPOS>MOLECULE
ASD07931684
  40   41    0    0    0
SMALL
NO_CHARGES


@<TRIPOS>ATOM
   1 C1            -0.0187     1.5258     0.0104 C.3     
   2 C2             0.0021    -0.0041     0.0020 C.3     
   3 N3             0.6059    -0.4925     1.2489 N.3     
   4 C4             0.6428    -1.9607     1.2762 C.3     
   5 C5             1.2768    -2.4307     2.5869 C.3     
   6 C6             1.2024    -3.9566     2.6711 C.3     
   7 C7             1.9578    -4.5700     1.4904 C.3     
   8 C8             3.4217    -4.1275     1.5363 C.3     
   9 C9             3.4961    -2.6016     1.4521 C.3     
  10 C10            2.7407    -1.9882     2.6328 C.3     
  11 C11            1.8845    -6.0729     1.5733 C.ar    
  12 C12            1.3040    -6.7940     0.5467 C.ar    
  13 C13            1.2365    -8.1724     0.6221 C.ar    
  14 C14            1.7500    -8.8305     1.7255 C.ar    
  15 C15            2.3309    -8.1083     2.7526 C.ar    
  16 C16            2.4029    -6.7303     2.6734 C.ar    
  17 Cl17           1.6651   -10.5618     1.8212 Cl      
  18 O18            1.3220     2.0204     0.0003 O.3     
  19 H19           -0.5459     1.8868    -0.8726 H       
  20 H20           -0.5289     1.8773     0.9072 H       
  21 H21           -1.0175    -0.3808    -0.0798 H       
  22 H22            0.5883    -0.3548    -0.8473 H       
  23 H23            1.5284    -0.1051     1.3799 H       
  24 H24           -0.3723    -2.3511     1.2032 H       
  25 H25            1.2334    -2.3251     0.4357 H       
  26 H26            0.7386    -1.9938     3.4281 H       
  27 H27            1.6541    -4.2914     3.6049 H       
  28 H28            0.1595    -4.2719     2.6385 H       
  29 H29            1.5061    -4.2351     0.5566 H       
  30 H30            3.8734    -4.4623     2.4700 H       
  31 H31            3.9599    -4.5644     0.6951 H       
  32 H32            4.5390    -2.2863     1.4847 H       
  33 H33            3.0444    -2.2667     0.5183 H       
  34 H34            2.7937    -0.9012     2.5728 H       
  35 H35            3.1924    -2.3231     3.5665 H       
  36 H36            0.9028    -6.2802    -0.3144 H       
  37 H37            0.7826    -8.7357    -0.1798 H       
  38 H38            2.7319    -8.6215     3.6142 H       
  39 H39            2.8602    -6.1667     3.4732 H       
  40 H40            1.3852     2.9853     0.0049 H       
@<TRIPOS>BOND
   1    1    2 1
   2    1   18 1
   3    1   19 1
   4    1   20 1
   5    2    3 1
   6    2   21 1
   7    2   22 1
   8    3    4 1
   9    3   23 1
  10    4    5 1
  11    4   24 1
  12    4   25 1
  13    5    6 1
  14    5   10 1
  15    5   26 1
  16    6    7 1
  17    6   27 1
  18    6   28 1
  19    7    8 1
  20    7   11 1
  21    7   29 1
  22    8    9 1
  23    8   30 1
  24    8   31 1
  25    9   10 1
  26    9   32 1
  27    9   33 1
  28   10   34 1
  29   10   35 1
  30   11   12 ar
  31   11   16 ar
  32   12   13 ar
  33   12   36 1
  34   13   14 ar
  35   13   37 1
  36   14   15 ar
  37   14   17 1
  38   15   16 ar
  39   15   38 1
  40   16   39 1
  41   18   40 1

#	End of record

