#	Name: ASD01810377
#	Creating user name:	WinNT
#	Creation time:	15. 06. 2019 19:24

#	Modifying user name:	WinNT
#	Modification time:	15. 06. 2019 19:24

#	Program:	/corina/corina34_cracker 3.40 0067  02.08.2006

@<TRIPOS>MOLECULE
ASD01810377
  49   52    0    0    0
SMALL
NO_CHARGES


@<TRIPOS>ATOM
   1 C1            -0.0167     1.3836     0.0096 C.ar    
   2 C2             0.0021    -0.0041     0.0020 C.ar    
   3 C3             1.1955    -0.6917    -0.0130 C.ar    
   4 C4             2.4007     0.0063    -0.0207 C.ar    
   5 C5             2.3789     1.4112    -0.0130 C.ar    
   6 C6             1.1628     2.0943     0.0022 C.ar    
   7 N7             3.6012    -0.6701    -0.0353 N.pl3   
   8 C8             4.7860    -0.0459    -0.0424 C.2     
   9 C9             4.8923     1.3302    -0.0360 C.2     
  10 C10            3.6621     2.1382    -0.0214 C.2     
  11 O11            3.7021     3.3560    -0.0156 O.2     
  12 C12            6.2117     1.9779    -0.0431 C.2     
  13 C13            3.5805    -2.1349    -0.0429 C.3     
  14 C14            3.5604    -2.6296    -1.4663 C.ar    
  15 N15            2.4093    -2.7321    -2.1018 N.ar    
  16 C16            2.3376    -3.1585    -3.3462 C.ar    
  17 C17            3.4906    -3.5200    -4.0393 C.ar    
  18 C18            4.7262    -3.4226    -3.3934 C.ar    
  19 C19            4.7500    -2.9637    -2.0877 C.ar    
  20 C20            3.4083    -4.0011    -5.4407 C.ar    
  21 O21            7.2212     1.3007    -0.0548 O.2     
  22 O22            6.3024     3.3229    -0.0368 O.3     
  23 C23            2.1720    -4.0952    -6.0761 C.ar    
  24 C24            2.1013    -4.5429    -7.3799 C.ar    
  25 C25            3.2547    -4.8977    -8.0555 C.ar    
  26 C26            4.4850    -4.8066    -7.4292 C.ar    
  27 C27            4.5679    -4.3549    -6.1279 C.ar    
  28 S28            0.5385    -4.6631    -8.1849 S.o2    
  29 O29            0.7280    -5.6702    -9.1694 O.2     
  30 O30           -0.3895    -4.8414    -7.1237 O.2     
  31 C31            0.3068    -3.0432    -8.9677 C.3     
  32 H32           -0.9606     1.9085     0.0170 H       
  33 H33           -0.9293    -0.5508     0.0083 H       
  34 H34            1.1967    -1.7717    -0.0185 H       
  35 H35            1.1465     3.1742     0.0078 H       
  36 H36            5.6884    -0.6392    -0.0530 H       
  37 H37            4.4699    -2.5135     0.4608 H       
  38 H38            2.6902    -2.4884     0.4772 H       
  39 H39            1.3763    -3.2289    -3.8333 H       
  40 H40            5.6396    -3.6946    -3.9015 H       
  41 H41            5.6866    -2.8754    -1.5572 H       
  42 H42            7.1916     3.7029    -0.0419 H       
  43 H43            1.2706    -3.8187    -5.5494 H       
  44 H44            3.1949    -5.2475    -9.0755 H       
  45 H45            5.3826    -5.0853    -7.9612 H       
  46 H46            5.5287    -4.2842    -5.6400 H       
  47 H47            1.1161    -2.8624    -9.6752 H       
  48 H48           -0.6470    -3.0276    -9.4951 H       
  49 H49            0.3121    -2.2662    -8.2033 H       
@<TRIPOS>BOND
   1    1    2 ar
   2    1    6 ar
   3    1   32 1
   4    2    3 ar
   5    2   33 1
   6    3    4 ar
   7    3   34 1
   8    4    5 ar
   9    4    7 1
  10    5    6 ar
  11    5   10 1
  12    6   35 1
  13    7    8 1
  14    7   13 1
  15    8    9 2
  16    8   36 1
  17    9   10 1
  18    9   12 1
  19   10   11 2
  20   12   21 2
  21   12   22 1
  22   13   14 1
  23   13   37 1
  24   13   38 1
  25   14   15 ar
  26   14   19 ar
  27   15   16 ar
  28   16   17 ar
  29   16   39 1
  30   17   18 ar
  31   17   20 1
  32   18   19 ar
  33   18   40 1
  34   19   41 1
  35   20   23 ar
  36   20   27 ar
  37   22   42 1
  38   23   24 ar
  39   23   43 1
  40   24   28 1
  41   24   25 ar
  42   25   26 ar
  43   25   44 1
  44   26   27 ar
  45   26   45 1
  46   27   46 1
  47   28   29 2
  48   28   30 2
  49   28   31 1
  50   31   47 1
  51   31   48 1
  52   31   49 1

#	End of record

