#	Name: ASD01884265
#	Creating user name:	WinNT
#	Creation time:	15. 06. 2019 19:47

#	Modifying user name:	WinNT
#	Modification time:	15. 06. 2019 19:47

#	Program:	/corina/corina34_cracker 3.40 0067  02.08.2006

@<TRIPOS>MOLECULE
ASD01884265
  27   29    0    0    0
SMALL
NO_CHARGES


@<TRIPOS>ATOM
   1 C1            -0.0168     1.3857     0.0097 C.ar    
   2 C2             0.0021    -0.0041     0.0020 C.ar    
   3 C3            -1.1699    -0.7232     0.0094 C.ar    
   4 C4            -2.4131    -0.0730     0.0252 C.ar    
   5 C5            -2.4143     1.3224     0.0332 C.ar    
   6 C6            -1.2366     2.0481     0.0307 C.ar    
   7 N7            -3.6743    -0.6472     0.0347 N.am    
   8 C8            -4.7427     0.1556     0.0501 C.2     
   9 S9            -4.1142     1.8117     0.0532 S.3     
  10 Br10          -1.2883     3.9384     0.0417 Br      
  11 N11            1.1812     2.1094     0.0021 N.pl3   
  12 O12           -5.9118    -0.1830     0.0596 O.2     
  13 C13           -3.8332    -2.1035     0.0275 C.3     
  14 C14           -3.8736    -2.6192     1.4674 C.3     
  15 C15           -4.1527    -4.1089     1.6767 C.3     
  16 C16           -2.7474    -3.5530     1.9153 C.3     
  17 F17           -1.7594    -3.8699     0.9769 F       
  18 F18           -2.3103    -3.4488     3.2402 F       
  19 H19            0.9480    -0.5251    -0.0102 H       
  20 H20           -1.1329    -1.8025     0.0025 H       
  21 H21            2.0307     1.6412    -0.0085 H       
  22 H22            1.1620     3.0792     0.0075 H       
  23 H23           -4.7625    -2.3652    -0.4784 H       
  24 H24           -2.9932    -2.5580    -0.4977 H       
  25 H25           -4.2744    -1.9237     2.2048 H       
  26 H26           -4.7367    -4.3935     2.5520 H       
  27 H27           -4.3075    -4.7216     0.7886 H       
@<TRIPOS>BOND
   1    1    2 ar
   2    1   11 1
   3    1    6 ar
   4    2    3 ar
   5    2   19 1
   6    3    4 ar
   7    3   20 1
   8    4    5 ar
   9    4    7 1
  10    5    6 ar
  11    5    9 1
  12    6   10 1
  13    7    8 am
  14    7   13 1
  15    8    9 1
  16    8   12 2
  17   11   21 1
  18   11   22 1
  19   13   14 1
  20   13   23 1
  21   13   24 1
  22   14   15 1
  23   14   16 1
  24   14   25 1
  25   15   16 1
  26   15   26 1
  27   15   27 1
  28   16   17 1
  29   16   18 1

#	End of record

