#	Name: ASD03090236
#	Creating user name:	WinNT
#	Creation time:	15. 06. 2019 20:28

#	Modifying user name:	WinNT
#	Modification time:	15. 06. 2019 20:28

#	Program:	/corina/corina34_cracker 3.40 0067  02.08.2006

@<TRIPOS>MOLECULE
ASD03090236
  46   48    0    0    0
SMALL
NO_CHARGES


@<TRIPOS>ATOM
   1 C1             0.1941     1.0485     0.8773 C.ar    
   2 N2            -0.9238     1.4736     1.4440 N.ar    
   3 C3            -2.0686     0.8429     1.2798 C.ar    
   4 C4            -2.1400    -0.3070     0.4947 C.ar    
   5 C5            -0.9749    -0.7838    -0.1195 C.ar    
   6 C6             0.2017    -0.0871     0.0753 C.ar    
   7 C7            -3.4268    -1.0131     0.3133 C.2     
   8 N8            -6.9329    -1.2538     0.4077 N.pl3   
   9 C9            -7.4345    -0.0734     0.9658 C.ar    
  10 C10           -6.7046     0.6027     1.9346 C.ar    
  11 C11           -7.2020     1.7682     2.4845 C.ar    
  12 C12           -8.4274     2.2621     2.0708 C.ar    
  13 C13           -9.1573     1.5892     1.1051 C.ar    
  14 C14           -8.6610     0.4273     0.5478 C.ar    
  15 N15           -4.6247    -0.5151     0.5481 N.2     
  16 C16           -5.5546    -1.4325     0.2748 C.2     
  17 N17           -4.9648    -2.5302    -0.1385 N.2     
  18 N18           -3.5828    -2.2816    -0.1281 N.pl3   
  19 C19           -2.5202    -3.2149    -0.5103 C.3     
  20 C20           -2.2789    -3.1232    -2.0183 C.3     
  21 O21           -1.2424    -4.0335    -2.3912 O.3     
  22 F22           -8.9122     3.4019     2.6103 F       
  23 O23            1.3474     1.7334     1.0772 O.3     
  24 C24            1.2765     2.8955     1.9058 C.3     
  25 C25            2.6644     3.5302     2.0140 C.3     
  26 C26          -10.4911     2.1291     0.6572 C.3     
  27 F27          -11.0330     1.2838    -0.3170 F       
  28 F28          -11.3591     2.1950     1.7525 F       
  29 F29          -10.3195     3.4096     0.1205 F       
  30 H30           -2.9604     1.2199     1.7583 H       
  31 H31           -0.9969    -1.6718    -0.7338 H       
  32 H32            1.1192    -0.4258    -0.3829 H       
  33 H33           -7.5426    -1.9482     0.1128 H       
  34 H34           -5.7489     0.2174     2.2581 H       
  35 H35           -6.6346     2.2943     3.2379 H       
  36 H36           -9.2303    -0.0969    -0.2054 H       
  37 H37           -1.6033    -2.9587     0.0206 H       
  38 H38           -2.8183    -4.2308    -0.2511 H       
  39 H39           -3.1958    -3.3794    -2.5492 H       
  40 H40           -1.9808    -2.1073    -2.2775 H       
  41 H41           -1.0360    -4.0289    -3.3358 H       
  42 H42            0.5822     3.6124     1.4675 H       
  43 H43            0.9278     2.6127     2.8991 H       
  44 H44            2.6103     4.4166     2.6461 H       
  45 H45            3.3586     2.8132     2.4524 H       
  46 H46            3.0131     3.8129     1.0208 H       
@<TRIPOS>BOND
   1    1    2 ar
   2    1   23 1
   3    1    6 ar
   4    2    3 ar
   5    3    4 ar
   6    3   30 1
   7    4    5 ar
   8    4    7 1
   9    5    6 ar
  10    5   31 1
  11    6   32 1
  12    7   15 2
  13    7   18 1
  14    8    9 1
  15    8   16 1
  16    8   33 1
  17    9   10 ar
  18    9   14 ar
  19   10   11 ar
  20   10   34 1
  21   11   12 ar
  22   11   35 1
  23   12   13 ar
  24   12   22 1
  25   13   14 ar
  26   13   26 1
  27   14   36 1
  28   15   16 1
  29   16   17 2
  30   17   18 1
  31   18   19 1
  32   19   20 1
  33   19   37 1
  34   19   38 1
  35   20   21 1
  36   20   39 1
  37   20   40 1
  38   21   41 1
  39   23   24 1
  40   24   25 1
  41   24   42 1
  42   24   43 1
  43   25   44 1
  44   25   45 1
  45   25   46 1
  46   26   27 1
  47   26   28 1
  48   26   29 1

#	End of record

