#	Name: ASD00311131
#	Creating user name:	WinNT
#	Creation time:	15. 06. 2019 18:34

#	Modifying user name:	WinNT
#	Modification time:	15. 06. 2019 18:34

#	Program:	/corina/corina34_cracker 3.40 0067  02.08.2006

@<TRIPOS>MOLECULE
ASD00311131
  37   40    0    0    0
SMALL
NO_CHARGES


@<TRIPOS>ATOM
   1 C1            -0.0167     1.3778     0.0096 C.2     
   2 C2             0.0021    -0.0041     0.0020 C.2     
   3 C3             1.2585    -0.6766    -0.0131 C.2     
   4 C4             2.4315     0.0673    -0.0199 C.2     
   5 C5             2.3576     1.4751    -0.0117 C.2     
   6 N6             1.1651     2.0904     0.0022 N.am    
   7 C7            -1.3434    -0.5752     0.0118 C.2     
   8 C8            -2.3230     0.3265     0.0260 C.2     
   9 S9            -1.6792     1.9565     0.0358 S.3     
  10 O10            3.3826     2.1371    -0.0171 O.2     
  11 C11            3.7475    -0.6121    -0.0352 C.ar    
  12 C12            4.5937    -0.4748    -1.1354 C.ar    
  13 C13            5.8185    -1.1102    -1.1437 C.ar    
  14 C14            6.2077    -1.8823    -0.0637 C.ar    
  15 C15            5.3726    -2.0227     1.0303 C.ar    
  16 C16            4.1480    -1.3871     1.0531 C.ar    
  17 C17           -1.5961    -2.0356     0.0059 C.ar    
  18 C18           -1.7275    -2.7207    -1.2069 C.ar    
  19 C19           -1.9635    -4.0846    -1.2043 C.ar    
  20 C20           -2.0694    -4.7679    -0.0042 C.ar    
  21 C21           -1.9401    -4.0917     1.1980 C.ar    
  22 C22           -1.6980    -2.7325     1.2079 C.ar    
  23 F23           -2.3002    -6.0990    -0.0059 F       
  24 O24           -1.6243    -2.0490    -2.3838 O.3     
  25 O25            1.3084    -2.0291    -0.0204 O.3     
  26 Cl26          -4.0150    -0.0615     0.0392 Cl      
  27 H27            1.1330     3.0599     0.0073 H       
  28 H28            4.2908     0.1274    -1.9792 H       
  29 H29            6.4744    -1.0049    -1.9952 H       
  30 H30            7.1673    -2.3777    -0.0749 H       
  31 H31            5.6818    -2.6270     1.8703 H       
  32 H32            3.4990    -1.4935     1.9097 H       
  33 H33           -2.0655    -4.6164    -2.1387 H       
  34 H34           -2.0240    -4.6303     2.1303 H       
  35 H35           -1.5928    -2.2090     2.1467 H       
  36 H36           -0.7240    -2.0050    -2.7339 H       
  37 H37            2.2056    -2.3896    -0.0306 H       
@<TRIPOS>BOND
   1    1    2 2
   2    1    6 1
   3    1    9 1
   4    2    3 1
   5    2    7 1
   6    3    4 2
   7    3   25 1
   8    4    5 1
   9    4   11 1
  10    5    6 am
  11    5   10 2
  12    6   27 1
  13    7    8 2
  14    7   17 1
  15    8    9 1
  16    8   26 1
  17   11   12 ar
  18   11   16 ar
  19   12   13 ar
  20   12   28 1
  21   13   14 ar
  22   13   29 1
  23   14   15 ar
  24   14   30 1
  25   15   16 ar
  26   15   31 1
  27   16   32 1
  28   17   18 ar
  29   17   22 ar
  30   18   19 ar
  31   18   24 1
  32   19   20 ar
  33   19   33 1
  34   20   21 ar
  35   20   23 1
  36   21   22 ar
  37   21   34 1
  38   22   35 1
  39   24   36 1
  40   25   37 1

#	End of record

