#	Name: ASD03930093
#	Creating user name:	WinNT
#	Creation time:	15. 06. 2019 20:47

#	Modifying user name:	WinNT
#	Modification time:	15. 06. 2019 20:47

#	Program:	/corina/corina34_cracker 3.40 0067  02.08.2006

@<TRIPOS>MOLECULE
ASD03930093
  29   31    0    0    0
SMALL
NO_CHARGES


@<TRIPOS>ATOM
   1 C1            -0.0166     1.3723     0.0096 C.ar    
   2 C2             0.0021    -0.0041     0.0020 C.ar    
   3 C3             1.2117    -0.6877    -0.0127 C.ar    
   4 C4             2.4157     0.0195    -0.0205 C.ar    
   5 C5             2.4056     1.3996    -0.0142 C.ar    
   6 C6             1.1865     2.0883     0.0019 C.ar    
   7 O7             1.4916    -2.0218    -0.0212 O.3     
   8 C8             2.8626    -2.1257    -0.4479 C.3     
   9 O9             3.4462    -0.8761    -0.0345 O.3     
  10 C10            1.1700     3.5568     0.0086 C.2     
  11 O11            2.2134     4.1751     0.0002 O.2     
  12 C12           -0.5616     4.5743     1.4546 C.2     
  13 C13           -0.1435     4.2955     0.0260 C.3     
  14 C14            0.0118     5.6637    -0.6697 C.3     
  15 C15           -0.8764     6.6104     0.1770 C.3     
  16 C16           -0.6524     6.0818     1.6130 C.3     
  17 O17           -0.7864     3.7503     2.3083 O.2     
  18 H18           -0.9590     1.8997     0.0169 H       
  19 H19           -0.9270    -0.5547     0.0079 H       
  20 H20            3.3363     1.9474    -0.0199 H       
  21 H21            3.3558    -2.9614     0.0484 H       
  22 H22            2.9192    -2.2349    -1.5310 H       
  23 H23           -0.9094     3.7061    -0.4780 H       
  24 H24            1.0515     5.9901    -0.6450 H       
  25 H25           -0.3509     5.6147    -1.6964 H       
  26 H26           -0.5397     7.6431     0.0852 H       
  27 H27           -1.9243     6.5164    -0.1076 H       
  28 H28           -1.4924     6.3511     2.2532 H       
  29 H29            0.2795     6.4727     2.0215 H       
@<TRIPOS>BOND
   1    1    2 ar
   2    1    6 ar
   3    1   18 1
   4    2    3 ar
   5    2   19 1
   6    3    4 ar
   7    3    7 1
   8    4    5 ar
   9    4    9 1
  10    5    6 ar
  11    5   20 1
  12    6   10 1
  13    7    8 1
  14    8    9 1
  15    8   21 1
  16    8   22 1
  17   10   11 2
  18   10   13 1
  19   12   13 1
  20   12   17 2
  21   12   16 1
  22   13   14 1
  23   13   23 1
  24   14   15 1
  25   14   24 1
  26   14   25 1
  27   15   16 1
  28   15   26 1
  29   15   27 1
  30   16   28 1
  31   16   29 1

#	End of record

