#	Name: ASD01410067
#	Creating user name:	WinNT
#	Creation time:	15. 06. 2019 19:16

#	Modifying user name:	WinNT
#	Modification time:	15. 06. 2019 19:16

#	Program:	/corina/corina34_cracker 3.40 0067  02.08.2006

@<TRIPOS>MOLECULE
ASD01410067
  67   71    0    0    0
SMALL
NO_CHARGES


@<TRIPOS>ATOM
   1 C1            -0.0169     1.3986     0.0097 C.ar    
   2 C2             0.0021    -0.0041     0.0020 C.ar    
   3 C3            -1.1621    -0.7094     0.0098 C.ar    
   4 C4            -2.3912    -0.0347     0.0256 C.ar    
   5 C5            -2.4204     1.3751     0.0335 C.ar    
   6 C6            -1.2305     2.0850     0.0308 C.ar    
   7 C7            -3.7374    -0.4722     0.0366 C.2     
   8 C8            -4.5317     0.6283     0.0504 C.2     
   9 N9            -3.7465     1.7566     0.0487 N.pl3   
  10 C10           -6.0103     0.6156     0.0650 C.ar    
  11 C11           -6.7099     1.4583     0.9300 C.ar    
  12 C12           -8.0893     1.4419     0.9383 C.ar    
  13 C13           -8.7792     0.5924     0.0917 C.ar    
  14 C14           -8.0917    -0.2456    -0.7682 C.ar    
  15 C15           -6.7122    -0.2351    -0.7902 C.ar    
  16 C16           -4.2054    -1.9047     0.0331 C.3     
  17 C17           -3.6903    -2.6064    -1.2251 C.3     
  18 C18           -4.1654    -4.0608    -1.2287 C.3     
  19 C19           -3.6262    -4.7765     0.0115 C.3     
  20 C20           -4.1413    -4.0748     1.2697 C.3     
  21 C21           -3.6662    -2.6204     1.2732 C.3     
  22 C22            1.2513     2.1499     0.0017 C.2     
  23 O23            2.4258     1.4892    -0.0131 O.3     
  24 C24           -4.2368     3.1371     0.0614 C.3     
  25 C25           -4.3904     3.6025     1.4865 C.2     
  26 N26           -4.8314     4.8497     1.7443 N.am    
  27 O27            1.2377     3.3650     0.0083 O.2     
  28 O28           -4.1172     2.8547     2.4014 O.2     
  29 C29           -4.9885     5.3240     3.1276 C.3     
  30 C30           -4.2628     6.6664     3.2673 C.3     
  31 N31           -4.7480     7.5916     2.2345 N.3     
  32 C32           -4.4355     7.0973     0.8869 C.3     
  33 C33           -5.1625     5.7746     0.6497 C.3     
  34 C34           -4.2049     8.9410     2.4394 C.3     
  35 H35            0.9465    -0.5277    -0.0105 H       
  36 H36           -1.1391    -1.7891     0.0034 H       
  37 H37           -1.2430     3.1649     0.0368 H       
  38 H38           -6.1725     2.1216     1.5916 H       
  39 H39           -8.6319     2.0932     1.6074 H       
  40 H40           -9.8591     0.5831     0.1024 H       
  41 H41           -8.6361    -0.9063    -1.4265 H       
  42 H42           -6.1767    -0.8894    -1.4621 H       
  43 H43           -5.2951    -1.9310     0.0434 H       
  44 H44           -4.0744    -2.0965    -2.1086 H       
  45 H45           -2.6006    -2.5801    -1.2354 H       
  46 H46           -5.2550    -4.0871    -1.2183 H       
  47 H47           -3.7984    -4.5607    -2.1250 H       
  48 H48           -3.9646    -5.8126     0.0089 H       
  49 H49           -2.5365    -4.7502     0.0011 H       
  50 H50           -5.2309    -4.1011     1.2800 H       
  51 H51           -3.7572    -4.5846     2.1531 H       
  52 H52           -2.5766    -2.5941     1.2629 H       
  53 H53           -4.0332    -2.1205     2.1696 H       
  54 H54            3.2308     2.0250    -0.0179 H       
  55 H55           -3.5251     3.7802    -0.4561 H       
  56 H56           -5.2023     3.1844    -0.4423 H       
  57 H57           -6.0471     5.4550     3.3517 H       
  58 H58           -4.5527     4.5989     3.8150 H       
  59 H59           -4.4608     7.0860     4.2536 H       
  60 H60           -3.1904     6.5146     3.1448 H       
  61 H61           -4.7588     7.8294     0.1470 H       
  62 H62           -3.3607     6.9395     0.7976 H       
  63 H63           -4.8446     5.3476    -0.3015 H       
  64 H64           -6.2389     5.9457     0.6359 H       
  65 H65           -3.1165     8.9055     2.3933 H       
  66 H66           -4.5801     9.6057     1.6612 H       
  67 H67           -4.5153     9.3132     3.4157 H       
@<TRIPOS>BOND
   1    1    2 ar
   2    1   22 1
   3    1    6 ar
   4    2    3 ar
   5    2   35 1
   6    3    4 ar
   7    3   36 1
   8    4    5 ar
   9    4    7 1
  10    5    6 ar
  11    5    9 1
  12    6   37 1
  13    7    8 2
  14    7   16 1
  15    8    9 1
  16    8   10 1
  17    9   24 1
  18   10   11 ar
  19   10   15 ar
  20   11   12 ar
  21   11   38 1
  22   12   13 ar
  23   12   39 1
  24   13   14 ar
  25   13   40 1
  26   14   15 ar
  27   14   41 1
  28   15   42 1
  29   16   17 1
  30   16   21 1
  31   16   43 1
  32   17   18 1
  33   17   44 1
  34   17   45 1
  35   18   19 1
  36   18   46 1
  37   18   47 1
  38   19   20 1
  39   19   48 1
  40   19   49 1
  41   20   21 1
  42   20   50 1
  43   20   51 1
  44   21   52 1
  45   21   53 1
  46   22   23 1
  47   22   27 2
  48   23   54 1
  49   24   25 1
  50   24   55 1
  51   24   56 1
  52   25   26 am
  53   25   28 2
  54   26   29 1
  55   26   33 1
  56   29   30 1
  57   29   57 1
  58   29   58 1
  59   30   31 1
  60   30   59 1
  61   30   60 1
  62   31   32 1
  63   31   34 1
  64   32   33 1
  65   32   61 1
  66   32   62 1
  67   33   63 1
  68   33   64 1
  69   34   65 1
  70   34   66 1
  71   34   67 1

#	End of record

