#	Name: ASD02038031
#	Creating user name:	WinNT
#	Creation time:	15. 06. 2019 20:16

#	Modifying user name:	WinNT
#	Modification time:	15. 06. 2019 20:16

#	Program:	/corina/corina34_cracker 3.40 0067  02.08.2006

@<TRIPOS>MOLECULE
ASD02038031
  49   51    0    0    0
SMALL
NO_CHARGES


@<TRIPOS>ATOM
   1 C1            -0.0000     1.3732    -0.0354 C.ar    
   2 N2             1.1949     2.0990    -0.0992 N.am    
   3 N3             2.3151     4.1445     0.0016 N.am    
   4 C4             1.1661     3.4464    -0.0923 C.2     
   5 C5             5.6910     5.8633    -1.9365 C.3     
   6 O6             6.9935     5.3968    -1.5787 O.3     
   7 C7             8.0134     5.7059    -2.4233 C.ar    
   8 C8             9.3033     5.2843    -2.1364 C.ar    
   9 C9             7.7630     6.4380    -3.5744 C.ar    
  10 C10            8.7991     6.7520    -4.4323 C.ar    
  11 C11           10.0900     6.3357    -4.1423 C.ar    
  12 C12           10.3394     5.5984    -2.9942 C.ar    
  13 O13            0.1035     4.0322    -0.1708 O.2     
  14 C14           -1.0831     1.8770     0.6728 C.ar    
  15 C15            2.3119     5.6097    -0.1076 C.3     
  16 C16            3.3115     6.0255    -1.1914 C.3     
  17 C17            4.6817     5.4218    -0.8747 C.3     
  18 C18            4.5799     3.8948    -0.8717 C.3     
  19 C19            3.5939     3.4553     0.2213 C.3     
  20 O20           11.1099     6.6444    -4.9870 O.3     
  21 C21           -0.1070     0.1505    -0.6849 C.ar    
  22 C22           -1.2875    -0.5634    -0.6200 C.ar    
  23 C23           -2.3625    -0.0615     0.0905 C.ar    
  24 C24           -2.2628     1.1609     0.7291 C.ar    
  25 C25           -3.6493    -0.8428     0.1588 C.3     
  26 F26           -3.6171    -1.6986     1.2650 F       
  27 F27           -4.7258     0.0418     0.2848 F       
  28 F28           -3.7997    -1.5969    -1.0099 F       
  29 H29            2.0438     1.6322    -0.1485 H       
  30 H30            5.6994     6.9514    -1.9995 H       
  31 H31            5.4081     5.4455    -2.9026 H       
  32 H32            9.4976     4.7108    -1.2421 H       
  33 H33            6.7579     6.7622    -3.8002 H       
  34 H34            8.6040     7.3214    -5.3290 H       
  35 H35           11.3446     5.2745    -2.7682 H       
  36 H36           -1.0029     2.8274     1.1793 H       
  37 H37            1.3140     5.9536    -0.3796 H       
  38 H38            2.6043     6.0479     0.8466 H       
  39 H39            2.9693     5.6625    -2.1606 H       
  40 H40            3.3898     7.1124    -1.2164 H       
  41 H41            5.0122     5.7656     0.1054 H       
  42 H42            4.2257     3.5519    -1.8439 H       
  43 H43            5.5610     3.4652    -0.6692 H       
  44 H44            3.9933     3.7182     1.2009 H       
  45 H45            3.4414     2.3775     0.1639 H       
  46 H46           11.5466     7.4835    -4.7861 H       
  47 H47            0.7320    -0.2417    -1.2406 H       
  48 H48           -1.3713    -1.5144    -1.1249 H       
  49 H49           -3.1041     1.5503     1.2832 H       
@<TRIPOS>BOND
   1    1   21 ar
   2    1    2 1
   3    1   14 ar
   4    2    4 am
   5    2   29 1
   6    3    4 am
   7    3   15 1
   8    3   19 1
   9    4   13 2
  10    5    6 1
  11    5   17 1
  12    5   30 1
  13    5   31 1
  14    6    7 1
  15    7    8 ar
  16    7    9 ar
  17    8   12 ar
  18    8   32 1
  19    9   10 ar
  20    9   33 1
  21   10   11 ar
  22   10   34 1
  23   11   12 ar
  24   11   20 1
  25   12   35 1
  26   14   24 ar
  27   14   36 1
  28   15   16 1
  29   15   37 1
  30   15   38 1
  31   16   17 1
  32   16   39 1
  33   16   40 1
  34   17   18 1
  35   17   41 1
  36   18   19 1
  37   18   42 1
  38   18   43 1
  39   19   44 1
  40   19   45 1
  41   20   46 1
  42   21   22 ar
  43   21   47 1
  44   22   23 ar
  45   22   48 1
  46   23   24 ar
  47   23   25 1
  48   24   49 1
  49   25   26 1
  50   25   27 1
  51   25   28 1

#	End of record

