#	Name: ASD02198102
#	Creating user name:	WinNT
#	Creation time:	15. 06. 2019 20:18

#	Modifying user name:	WinNT
#	Modification time:	15. 06. 2019 20:18

#	Program:	/corina/corina34_cracker 3.40 0067  02.08.2006

@<TRIPOS>MOLECULE
ASD02198102
  59   62    0    0    0
SMALL
NO_CHARGES


@<TRIPOS>ATOM
   1 C1            -0.1188     1.4001    -0.5022 C.2     
   2 C2             0.0009     0.0277    -0.4516 C.2     
   3 C3            -1.1110    -0.8448    -0.2211 C.1     
   4 S4             1.3934     2.1320    -0.7929 S.3     
   5 C5             2.2088     0.5774    -0.8493 C.2     
   6 C6             1.3012    -0.4340    -0.6454 C.2     
   7 C7             3.5884     0.3946    -1.0712 C.2     
   8 C8             4.4435     1.5534    -1.4018 C.ar    
   9 O9             4.0765    -0.7201    -0.9904 O.2     
  10 N10            1.6445    -1.7773    -0.6333 N.pl3   
  11 N11           -1.3016     2.0871    -0.3449 N.pl3   
  12 N12           -1.9930    -1.5369    -0.0383 N.1     
  13 C13            5.2876     2.1008    -0.4341 C.ar    
  14 C14           -1.2964     3.4764    -0.2883 C.ar    
  15 C15           -2.3447     4.1984    -0.8540 C.ar    
  16 C16            6.0858     3.1853    -0.7505 C.ar    
  17 C17            6.0491     3.7301    -2.0276 C.ar    
  18 C18            5.2166     3.1942    -2.9907 C.ar    
  19 C19            4.4152     2.1043    -2.6895 C.ar    
  20 C20           -2.3438     5.5630    -0.8003 C.ar    
  21 C21           -0.2457     4.1419     0.3389 C.ar    
  22 O22            6.9082     3.7197     0.1914 O.3     
  23 C23            7.7051     4.8385    -0.2026 C.3     
  24 O24            3.5975     1.5780    -3.6372 O.3     
  25 C25            3.6134     2.1979    -4.9246 C.3     
  26 C26           -1.2864     6.2366    -0.1751 C.ar    
  27 C27           -0.2368     5.5063     0.3972 C.ar    
  28 C28           -1.2811     7.7032    -0.1149 C.2     
  29 C29           -0.1427     8.4256     0.5581 C.3     
  30 O30           -2.1932     8.3337    -0.6070 O.2     
  31 C31           -0.3806     9.9351     0.4822 C.3     
  32 C32           -1.5884    10.3202     1.3086 C.2     
  33 C33            0.7984    10.6983     1.1259 C.3     
  34 C34            0.0701    11.7430     2.0019 C.3     
  35 O35           -1.2137    11.1252     2.3131 O.3     
  36 O36           -2.7207     9.9566     1.0952 O.2     
  37 H37            2.5666    -2.0435    -0.7736 H       
  38 H38            0.9625    -2.4509    -0.4846 H       
  39 H39           -2.1385     1.6020    -0.2736 H       
  40 H40            5.3171     1.6787     0.5595 H       
  41 H41           -3.1593     3.6783    -1.3361 H       
  42 H42            6.6744     4.5771    -2.2687 H       
  43 H43            5.1929     3.6230    -3.9816 H       
  44 H44           -3.1568     6.1220    -1.2395 H       
  45 H45            0.5629     3.5781     0.7802 H       
  46 H46            8.3133     5.1663     0.6405 H       
  47 H47            8.3549     4.5488    -1.0284 H       
  48 H48            7.0551     5.6537    -0.5204 H       
  49 H49            2.9170     1.6814    -5.5852 H       
  50 H50            3.3165     3.2423    -4.8287 H       
  51 H51            4.6188     2.1429    -5.3420 H       
  52 H52            0.5803     6.0216     0.8801 H       
  53 H53           -0.0846     8.1190     1.6025 H       
  54 H54            0.7922     8.1794     0.0547 H       
  55 H55           -0.5152    10.2456    -0.5539 H       
  56 H56            1.4039    10.0314     1.7397 H       
  57 H57            1.4069    11.1864     0.3646 H       
  58 H58            0.6330    11.9323     2.9159 H       
  59 H59           -0.0778    12.6690     1.4462 H       
@<TRIPOS>BOND
   1    1    2 2
   2    1    4 1
   3    1   11 1
   4    2    3 1
   5    2    6 1
   6    3   12 3
   7    4    5 1
   8    5    6 2
   9    5    7 1
  10    6   10 1
  11    7    8 1
  12    7    9 2
  13    8   13 ar
  14    8   19 ar
  15   10   37 1
  16   10   38 1
  17   11   14 1
  18   11   39 1
  19   13   16 ar
  20   13   40 1
  21   14   15 ar
  22   14   21 ar
  23   15   20 ar
  24   15   41 1
  25   16   17 ar
  26   16   22 1
  27   17   18 ar
  28   17   42 1
  29   18   19 ar
  30   18   43 1
  31   19   24 1
  32   20   26 ar
  33   20   44 1
  34   21   27 ar
  35   21   45 1
  36   22   23 1
  37   23   46 1
  38   23   47 1
  39   23   48 1
  40   24   25 1
  41   25   49 1
  42   25   50 1
  43   25   51 1
  44   26   27 ar
  45   26   28 1
  46   27   52 1
  47   28   29 1
  48   28   30 2
  49   29   31 1
  50   29   53 1
  51   29   54 1
  52   31   32 1
  53   31   33 1
  54   31   55 1
  55   32   36 2
  56   32   35 1
  57   33   34 1
  58   33   56 1
  59   33   57 1
  60   34   35 1
  61   34   58 1
  62   34   59 1

#	End of record

