#	Name: ASD01881432
#	Creating user name:	WinNT
#	Creation time:	15. 06. 2019 19:42

#	Modifying user name:	WinNT
#	Modification time:	15. 06. 2019 19:42

#	Program:	/corina/corina34_cracker 3.40 0067  02.08.2006

@<TRIPOS>MOLECULE
ASD01881432
  53   56    0    0    0
SMALL
NO_CHARGES


@<TRIPOS>ATOM
   1 C1             0.1590     1.4569     0.0151 C.3     
   2 O2            -1.6469    -4.2489    -3.1900 O.3     
   3 C3             1.1273     1.3338     4.0955 C.ar    
   4 C4             1.0993     0.6620     2.8912 C.ar    
   5 C5             0.0090     1.3363     4.9173 C.ar    
   6 C6            -1.1440     0.6614     4.5296 C.ar    
   7 C7            -1.1780    -0.0126     3.3257 C.ar    
   8 C8            -0.0544    -0.0159     2.4985 C.ar    
   9 C9            -0.0869    -0.7383     1.2054 C.2     
  10 C10            0.0148    -0.0432     0.0149 C.2     
  11 C11           -0.2166    -2.1483     1.1771 C.2     
  12 C12           -0.2454    -2.8027     0.0011 C.2     
  13 N13           -0.1508    -2.1239    -1.1796 N.pl3   
  14 C14           -0.0187    -0.7562    -1.1954 C.2     
  15 C15           -0.1521    -2.5120    -2.4849 C.2     
  16 N16           -0.0329    -1.4344    -3.2166 N.2     
  17 N17            0.0474    -0.3918    -2.4668 N.2     
  18 C18           -0.2689    -3.9257    -2.9937 C.3     
  19 F19           -2.2310     0.6657     5.3318 F       
  20 O20            0.0404     1.9989     6.1032 O.3     
  21 C21            0.3716     1.2962     7.2181 C.ar    
  22 C22           -3.3718    -5.8094    -3.8461 C.3     
  23 C23           -1.8697    -5.5749    -3.6740 C.3     
  24 C24            0.5930    -0.0756     7.1477 C.ar    
  25 C25            0.9289    -0.7489     8.3113 C.ar    
  26 C26            1.0322    -0.0417     9.4943 C.ar    
  27 N27            0.8158     1.2588     9.5270 N.ar    
  28 C28            0.4994     1.9374     8.4422 C.ar    
  29 C29            1.3965    -0.7667    10.7643 C.3     
  30 C30            0.2624     3.4227     8.5343 C.3     
  31 H31            1.2162     1.7203     0.0451 H       
  32 H32           -0.2917     1.8653    -0.8895 H       
  33 H33           -0.3434     1.8701     0.8897 H       
  34 H34            2.0224     1.8550     4.4014 H       
  35 H35            1.9702     0.6612     2.2526 H       
  36 H36           -2.0728    -0.5370     3.0246 H       
  37 H37           -0.2922    -2.7005     2.1022 H       
  38 H38           -0.3443    -3.8782    -0.0085 H       
  39 H39            0.1649    -4.6110    -2.2654 H       
  40 H40            0.2640    -4.0164    -3.9402 H       
  41 H41           -3.7723    -5.0899    -4.5603 H       
  42 H42           -3.5417    -6.8208    -4.2152 H       
  43 H43           -3.8714    -5.6845    -2.8855 H       
  44 H44           -1.3700    -5.6998    -4.6346 H       
  45 H45           -1.4691    -6.2944    -2.9598 H       
  46 H46            0.5050    -0.6028     6.2092 H       
  47 H47            1.1076    -1.8139     8.2940 H       
  48 H48            2.4801    -0.7714    10.8819 H       
  49 H49            0.9409    -0.2603    11.6152 H       
  50 H50            1.0320    -1.7927    10.7143 H       
  51 H51            1.2018     3.9513     8.3726 H       
  52 H52           -0.4591     3.7234     7.7746 H       
  53 H53           -0.1270     3.6679     9.5224 H       
@<TRIPOS>BOND
   1    1   10 1
   2    1   31 1
   3    1   32 1
   4    1   33 1
   5    2   18 1
   6    2   23 1
   7    3    4 ar
   8    3    5 ar
   9    3   34 1
  10    4    8 ar
  11    4   35 1
  12    5    6 ar
  13    5   20 1
  14    6    7 ar
  15    6   19 1
  16    7    8 ar
  17    7   36 1
  18    8    9 1
  19    9   10 2
  20    9   11 1
  21   10   14 1
  22   11   12 2
  23   11   37 1
  24   12   13 1
  25   12   38 1
  26   13   14 1
  27   13   15 1
  28   14   17 2
  29   15   16 2
  30   15   18 1
  31   16   17 1
  32   18   39 1
  33   18   40 1
  34   20   21 1
  35   21   24 ar
  36   21   28 ar
  37   22   23 1
  38   22   41 1
  39   22   42 1
  40   22   43 1
  41   23   44 1
  42   23   45 1
  43   24   25 ar
  44   24   46 1
  45   25   26 ar
  46   25   47 1
  47   26   27 ar
  48   26   29 1
  49   27   28 ar
  50   28   30 1
  51   29   48 1
  52   29   49 1
  53   29   50 1
  54   30   51 1
  55   30   52 1
  56   30   53 1

#	End of record

