#	Name: ASD01240022
#	Creating user name:	WinNT
#	Creation time:	15. 06. 2019 19:15

#	Modifying user name:	WinNT
#	Modification time:	15. 06. 2019 19:15

#	Program:	/corina/corina34_cracker 3.40 0067  02.08.2006

@<TRIPOS>MOLECULE
ASD01240022
  29   31    0    0    0
SMALL
NO_CHARGES


@<TRIPOS>ATOM
   1 N1             0.0224     1.3391     0.3621 N.am    
   2 C2             0.0284     0.0195     0.1080 C.2     
   3 C3             1.4233    -0.4485     0.1700 C.2     
   4 C4             2.2191     0.7586     0.4900 C.ar    
   5 C5             3.5786     0.9802     0.6817 C.ar    
   6 C6             4.0301     2.2514     0.9768 C.ar    
   7 C7             3.1312     3.3005     1.0812 C.ar    
   8 C8             1.7803     3.0900     0.8931 C.ar    
   9 C9             1.3070     1.8169     0.5947 C.ar    
  10 O10           -0.9476    -0.6681    -0.1310 O.2     
  11 I11            6.0763     2.5938     1.2678 I       
  12 C12            1.8827    -1.7189    -0.0248 C.2     
  13 C13            3.3220    -1.9666    -0.1500 C.ar    
  14 C14            3.9110    -3.0465     0.5219 C.ar    
  15 C15            5.2633    -3.2747     0.4003 C.ar    
  16 C16            6.0450    -2.4355    -0.3873 C.ar    
  17 C17            5.4658    -1.3619    -1.0562 C.ar    
  18 C18            4.1134    -1.1279    -0.9468 C.ar    
  19 O19            7.3778    -2.6649    -0.5033 O.3     
  20 Br20           6.5367    -0.2261    -2.1234 Br      
  21 Br21           6.0599    -4.7311     1.3060 Br      
  22 H22           -0.7764     1.8891     0.3773 H       
  23 H23            4.2783     0.1616     0.6004 H       
  24 H24            3.4910     4.2922     1.3124 H       
  25 H25            1.0894     3.9157     0.9778 H       
  26 H26            1.1858    -2.5417    -0.0866 H       
  27 H27            3.3053    -3.6982     1.1342 H       
  28 H28            3.6639    -0.2970    -1.4703 H       
  29 H29            7.6140    -3.2488    -1.2371 H       
@<TRIPOS>BOND
   1    1    2 am
   2    1    9 1
   3    1   22 1
   4    2    3 1
   5    2   10 2
   6    3    4 1
   7    3   12 2
   8    4    5 ar
   9    4    9 ar
  10    5    6 ar
  11    5   23 1
  12    6    7 ar
  13    6   11 1
  14    7    8 ar
  15    7   24 1
  16    8    9 ar
  17    8   25 1
  18   12   13 1
  19   12   26 1
  20   13   14 ar
  21   13   18 ar
  22   14   15 ar
  23   14   27 1
  24   15   16 ar
  25   15   21 1
  26   16   17 ar
  27   16   19 1
  28   17   18 ar
  29   17   20 1
  30   18   28 1
  31   19   29 1

#	End of record

