#	Name: ASD01420024
#	Creating user name:	WinNT
#	Creation time:	15. 06. 2019 19:20

#	Modifying user name:	WinNT
#	Modification time:	15. 06. 2019 19:20

#	Program:	/corina/corina34_cracker 3.40 0067  02.08.2006

@<TRIPOS>MOLECULE
ASD01420024
  41   43    0    0    0
SMALL
NO_CHARGES


@<TRIPOS>ATOM
   1 C1            -0.1048    -0.3080     1.4457 C.3     
   2 N2             0.0139    -0.0236    -0.0024 N.3     
   3 C3             0.0687     1.4543    -0.0710 C.3     
   4 C4             0.6612     1.9026     1.2456 C.ar    
   5 C5             1.2360     3.0965     1.6375 C.ar    
   6 C6             1.7083     3.2462     2.9278 C.ar    
   7 C7             1.6054     2.2012     3.8272 C.ar    
   8 C8             1.0306     1.0066     3.4360 C.ar    
   9 C9             0.5582     0.8562     2.1462 C.ar    
  10 N10            2.3247     4.5251     3.3466 N.pl3   
  11 O11            2.4157     5.4455     2.5541 O.2     
  12 O12            2.7409     4.6570     4.4836 O.2     
  13 C13           -1.1475    -0.5421    -0.7376 C.3     
  14 C14           -1.0396    -0.1494    -2.1885 C.ar    
  15 C15           -0.1279    -0.7916    -3.0148 C.ar    
  16 C16           -0.0292    -0.4300    -4.3493 C.ar    
  17 C17           -0.8420     0.5729    -4.8553 C.ar    
  18 C18           -1.7519     1.2119    -4.0253 C.ar    
  19 C19           -1.8524     0.8456    -2.6965 C.ar    
  20 O20           -0.7473     0.9300    -6.1631 O.3     
  21 C21           -1.6154     1.9708    -6.6160 C.3     
  22 O22            0.6677    -1.7739    -2.5158 O.3     
  23 C23            1.5827    -2.3913    -3.4232 C.3     
  24 H24           -1.1546    -0.3714     1.7322 H       
  25 H25            0.4097    -1.2372     1.6904 H       
  26 H26            0.7057     1.7695    -0.8974 H       
  27 H27           -0.9346     1.8631    -0.1911 H       
  28 H28            1.3165     3.9129     0.9351 H       
  29 H29            1.9745     2.3182     4.8354 H       
  30 H30            0.9508     0.1904     4.1387 H       
  31 H31           -1.1735    -1.6287    -0.6563 H       
  32 H32           -2.0612    -0.1241    -0.3150 H       
  33 H33            0.6799    -0.9283    -4.9937 H       
  34 H34           -2.3852     1.9931    -4.4190 H       
  35 H35           -2.5643     1.3412    -2.0530 H       
  36 H36           -2.6524     1.6685    -6.4693 H       
  37 H37           -1.4185     2.8806    -6.0490 H       
  38 H38           -1.4376     2.1571    -7.6751 H       
  39 H39            1.0284    -2.8508    -4.2416 H       
  40 H40            2.2623    -1.6384    -3.8224 H       
  41 H41            2.1553    -3.1557    -2.8979 H       
@<TRIPOS>BOND
   1    1    2 1
   2    1    9 1
   3    1   24 1
   4    1   25 1
   5    2    3 1
   6    2   13 1
   7    3    4 1
   8    3   26 1
   9    3   27 1
  10    4    5 ar
  11    4    9 ar
  12    5    6 ar
  13    5   28 1
  14    6    7 ar
  15    6   10 1
  16    7    8 ar
  17    7   29 1
  18    8    9 ar
  19    8   30 1
  20   10   11 2
  21   10   12 2
  22   13   14 1
  23   13   31 1
  24   13   32 1
  25   14   15 ar
  26   14   19 ar
  27   15   16 ar
  28   15   22 1
  29   16   17 ar
  30   16   33 1
  31   17   18 ar
  32   17   20 1
  33   18   19 ar
  34   18   34 1
  35   19   35 1
  36   20   21 1
  37   21   36 1
  38   21   37 1
  39   21   38 1
  40   22   23 1
  41   23   39 1
  42   23   40 1
  43   23   41 1

#	End of record

