#	Name: ASD01148327
#	Creating user name:	WinNT
#	Creation time:	15. 06. 2019 19:02

#	Modifying user name:	WinNT
#	Modification time:	15. 06. 2019 19:02

#	Program:	/corina/corina34_cracker 3.40 0067  02.08.2006

@<TRIPOS>MOLECULE
ASD01148327
  52   55    0    0    0
SMALL
NO_CHARGES


@<TRIPOS>ATOM
   1 C1            -0.4096     1.8306    -0.0443 C.ar    
   2 C2            -0.4706     0.4509     0.0156 C.ar    
   3 C3             0.6940    -0.2896     0.0947 C.ar    
   4 C4             1.9196     0.3496     0.1134 C.ar    
   5 C5             1.9806     1.7292     0.0525 C.ar    
   6 C6             0.8159     2.4698    -0.0251 C.ar    
   7 C7             3.3166     2.4260     0.0734 C.3     
   8 O8             4.3314     1.6154    -0.5533 O.3     
   9 C9             3.3038     3.6757    -0.8390 C.3     
  10 C10            3.8458     3.1337    -2.1480 C.2     
  11 N11            4.3970     1.9899    -1.9151 N.2     
  12 C12            3.7577     3.7996    -3.4624 C.ar    
  13 C13            4.3018     3.1866    -4.5942 C.ar    
  14 C14            3.1253     5.0401    -3.5761 C.ar    
  15 C15            3.0432     5.6611    -4.8021 C.ar    
  16 C16            3.5918     5.0507    -5.9323 C.ar    
  17 C17            4.2196     3.8076    -5.8197 C.ar    
  18 C18            3.5027     5.7170    -7.2486 C.2     
  19 O19            4.0748     5.2420    -8.2102 O.2     
  20 N20            2.7872     6.8512    -7.3827 N.am    
  21 C21            4.8117     3.1494    -7.0392 C.3     
  22 C22            3.7163     2.7951     1.5034 C.3     
  23 F23            3.7867     1.6350     2.2821 F       
  24 F24            4.9655     3.4248     1.4906 F       
  25 F25            2.7621     3.6631     2.0450 F       
  26 C26            2.6990     7.5117    -8.6874 C.3     
  27 C27            1.8472     8.7491    -8.5674 C.ar    
  28 N28            0.5362     8.6499    -8.6671 N.ar    
  29 C29           -0.2487     9.7052    -8.5686 C.ar    
  30 C30            0.2819    10.9633    -8.3559 C.ar    
  31 C31            1.6567    11.1071    -8.2458 C.ar    
  32 C32            2.4489     9.9741    -8.3486 C.ar    
  33 H33           -1.3193     2.4090    -0.1106 H       
  34 H34           -1.4281    -0.0484     0.0010 H       
  35 H35            0.6463    -1.3675     0.1422 H       
  36 H36            2.8294    -0.2289     0.1759 H       
  37 H37            0.8636     3.5477    -0.0730 H       
  38 H38            2.2885     4.0513    -0.9665 H       
  39 H39            3.9576     4.4519    -0.4413 H       
  40 H40            4.7871     2.2257    -4.5072 H       
  41 H41            2.7005     5.5118    -2.7023 H       
  42 H42            2.5544     6.6201    -4.8901 H       
  43 H43            2.3307     7.2303    -6.6153 H       
  44 H44            5.8086     3.5512    -7.2210 H       
  45 H45            4.8778     2.0738    -6.8755 H       
  46 H46            4.1772     3.3472    -7.9031 H       
  47 H47            3.6983     7.7896    -9.0223 H       
  48 H48            2.2501     6.8302    -9.4099 H       
  49 H49           -1.3184     9.5848    -8.6555 H       
  50 H50           -0.3660    11.8237    -8.2769 H       
  51 H51            2.0995    12.0781    -8.0798 H       
  52 H52            3.5233    10.0489    -8.2673 H       
@<TRIPOS>BOND
   1    1    2 ar
   2    1    6 ar
   3    1   33 1
   4    2    3 ar
   5    2   34 1
   6    3    4 ar
   7    3   35 1
   8    4    5 ar
   9    4   36 1
  10    5    6 ar
  11    5    7 1
  12    6   37 1
  13    7    8 1
  14    7    9 1
  15    7   22 1
  16    8   11 1
  17    9   10 1
  18    9   38 1
  19    9   39 1
  20   10   11 2
  21   10   12 1
  22   12   13 ar
  23   12   14 ar
  24   13   17 ar
  25   13   40 1
  26   14   15 ar
  27   14   41 1
  28   15   16 ar
  29   15   42 1
  30   16   17 ar
  31   16   18 1
  32   17   21 1
  33   18   19 2
  34   18   20 am
  35   20   26 1
  36   20   43 1
  37   21   44 1
  38   21   45 1
  39   21   46 1
  40   22   23 1
  41   22   24 1
  42   22   25 1
  43   26   27 1
  44   26   47 1
  45   26   48 1
  46   27   28 ar
  47   27   32 ar
  48   28   29 ar
  49   29   30 ar
  50   29   49 1
  51   30   31 ar
  52   30   50 1
  53   31   32 ar
  54   31   51 1
  55   32   52 1

#	End of record

