#	Name: ASD02690002
#	Creating user name:	WinNT
#	Creation time:	15. 06. 2019 20:26

#	Modifying user name:	WinNT
#	Modification time:	15. 06. 2019 20:26

#	Program:	/corina/corina34_cracker 3.40 0067  02.08.2006

@<TRIPOS>MOLECULE
ASD02690002
  31   33    0    0    0
SMALL
NO_CHARGES


@<TRIPOS>ATOM
   1 O1             0.9362     0.3635    -0.2907 O.2     
   2 C2             0.5716     1.5162    -0.1662 C.2     
   3 N3             1.4094     2.5523    -0.0451 N.am    
   4 C4             0.7440     3.7177     0.0785 C.2     
   5 C5            -0.7274     3.3570     0.0271 C.3     
   6 C6            -1.4136     3.7449     1.3115 C.ar    
   7 C7            -2.2150     2.8312     1.9701 C.ar    
   8 C8            -2.8445     3.1870     3.1483 C.ar    
   9 C9            -2.6721     4.4563     3.6681 C.ar    
  10 C10           -1.8700     5.3696     3.0099 C.ar    
  11 C11           -1.2370     5.0124     1.8340 C.ar    
  12 C12           -1.3950     4.0202    -1.1501 C.ar    
  13 C13           -1.2240     5.3743    -1.3691 C.ar    
  14 C14           -1.8364     5.9826    -2.4488 C.ar    
  15 C15           -2.6195     5.2367    -3.3098 C.ar    
  16 C16           -2.7898     3.8824    -3.0912 C.ar    
  17 C17           -2.1739     3.2732    -2.0140 C.ar    
  18 N18           -0.7194     1.8935    -0.1405 N.am    
  19 O19            1.2227     4.8244     0.2052 O.2     
  20 H20            2.3762     2.4742    -0.0456 H       
  21 H21           -2.3497     1.8396     1.5641 H       
  22 H22           -3.4712     2.4734     3.6625 H       
  23 H23           -3.1645     4.7345     4.5882 H       
  24 H24           -1.7356     6.3614     3.4158 H       
  25 H25           -0.6073     5.7248     1.3217 H       
  26 H26           -0.6121     5.9571    -0.6965 H       
  27 H27           -1.7033     7.0407    -2.6195 H       
  28 H28           -3.0986     5.7120    -4.1529 H       
  29 H29           -3.4019     3.2996    -3.7637 H       
  30 H30           -2.3039     2.2144    -1.8453 H       
  31 H31           -1.4941     1.3145    -0.2157 H       
@<TRIPOS>BOND
   1    1    2 2
   2    2    3 am
   3    2   18 am
   4    3    4 am
   5    3   20 1
   6    4    5 1
   7    4   19 2
   8    5    6 1
   9    5   12 1
  10    5   18 1
  11    6    7 ar
  12    6   11 ar
  13    7    8 ar
  14    7   21 1
  15    8    9 ar
  16    8   22 1
  17    9   10 ar
  18    9   23 1
  19   10   11 ar
  20   10   24 1
  21   11   25 1
  22   12   13 ar
  23   12   17 ar
  24   13   14 ar
  25   13   26 1
  26   14   15 ar
  27   14   27 1
  28   15   16 ar
  29   15   28 1
  30   16   17 ar
  31   16   29 1
  32   17   30 1
  33   18   31 1

#	End of record

