#	Name: ASD07301378
#	Creating user name:	WinNT
#	Creation time:	15. 06. 2019 21:11

#	Modifying user name:	WinNT
#	Modification time:	15. 06. 2019 21:11

#	Program:	/corina/corina34_cracker 3.40 0067  02.08.2006

@<TRIPOS>MOLECULE
ASD07301378
  32   32    0    0    0
SMALL
NO_CHARGES


@<TRIPOS>ATOM
   1 C1            -0.0342     1.4629    -0.1360 C.2     
   2 C2            -0.0011    -0.0025    -0.0193 C.2     
   3 C3             1.2784    -0.7091    -0.0451 C.2     
   4 C4             1.3124    -2.2110     0.0745 C.3     
   5 O5             1.0027     2.0973    -0.1230 O.2     
   6 O6            -1.2141     2.1025    -0.2629 O.3     
   7 O7             2.3135    -0.0861    -0.1629 O.2     
   8 O8             2.6672    -2.6624     0.0230 O.3     
   9 C9             2.8119    -4.0802     0.1286 C.3     
  10 N10           -1.1280    -0.6809     0.1089 N.2     
  11 N11           -2.2370    -0.0557     0.3171 N.pl3   
  12 C12           -3.4429    -0.7580     0.3260 C.ar    
  13 C13           -4.6410    -0.0851     0.5505 C.ar    
  14 C14           -5.8331    -0.7854     0.5579 C.ar    
  15 C15           -5.8353    -2.1517     0.3427 C.ar    
  16 C16           -4.6467    -2.8224     0.1200 C.ar    
  17 C17           -3.4518    -2.1295     0.1053 C.ar    
  18 F18           -4.6387     1.2494     0.7611 F       
  19 C19           -1.1709     3.5497    -0.3732 C.3     
  20 H20            0.8654    -2.5102     1.0225 H       
  21 H21            0.7504    -2.6537    -0.7479 H       
  22 H22            2.2810    -4.5617    -0.6926 H       
  23 H23            3.8689    -4.3421     0.0812 H       
  24 H24            2.3960    -4.4181     1.0778 H       
  25 H25           -2.2327     0.9026     0.4674 H       
  26 H26           -6.7634    -0.2652     0.7322 H       
  27 H27           -6.7679    -2.6963     0.3490 H       
  28 H28           -4.6530    -3.8894    -0.0468 H       
  29 H29           -2.5250    -2.6542    -0.0737 H       
  30 H30           -0.7054     3.9683     0.5190 H       
  31 H31           -0.5898     3.8300    -1.2518 H       
  32 H32           -2.1852     3.9371    -0.4697 H       
@<TRIPOS>BOND
   1    1    2 1
   2    1    5 2
   3    1    6 1
   4    2    3 1
   5    2   10 2
   6    3    4 1
   7    3    7 2
   8    4    8 1
   9    4   20 1
  10    4   21 1
  11    6   19 1
  12    8    9 1
  13    9   22 1
  14    9   23 1
  15    9   24 1
  16   10   11 1
  17   11   12 1
  18   11   25 1
  19   12   13 ar
  20   12   17 ar
  21   13   14 ar
  22   13   18 1
  23   14   15 ar
  24   14   26 1
  25   15   16 ar
  26   15   27 1
  27   16   17 ar
  28   16   28 1
  29   17   29 1
  30   19   30 1
  31   19   31 1
  32   19   32 1

#	End of record

