#	Name: ASD09740331
#	Creating user name:	WinNT
#	Creation time:	15. 06. 2019 21:23

#	Modifying user name:	WinNT
#	Modification time:	15. 06. 2019 21:23

#	Program:	/corina/corina34_cracker 3.40 0067  02.08.2006

@<TRIPOS>MOLECULE
ASD09740331
  45   47    0    0    0
SMALL
NO_CHARGES


@<TRIPOS>ATOM
   1 N1            -0.0144     1.2085     0.0087 N.2     
   2 O2             0.0021    -0.0041     0.0020 O.3     
   3 C3             1.2060     1.6802    -0.0004 C.2     
   4 N4             2.0461     0.6245    -0.0141 N.2     
   5 C5             1.2702    -0.4440    -0.0125 C.2     
   6 C6             1.7128    -1.8529    -0.0238 C.ar    
   7 C7             1.5947     3.1130     0.0028 C.ar    
   8 C8             0.7691    -2.8832    -0.0204 C.ar    
   9 C9             1.1881    -4.1996    -0.0315 C.ar    
  10 C10            2.5498    -4.4974    -0.0462 C.ar    
  11 C11            3.4867    -3.4742    -0.0496 C.ar    
  12 C12            3.0750    -2.1582    -0.0438 C.ar    
  13 C13            0.6150     4.1020     0.0172 C.ar    
  14 C14            0.9841     5.4374     0.0201 C.ar    
  15 C15            2.3273     5.7863     0.0087 C.ar    
  16 C16            3.3004     4.8044    -0.0061 C.ar    
  17 C17            2.9413     3.4716    -0.0028 C.ar    
  18 O18            2.9603    -5.7925    -0.0567 O.3     
  19 C19            4.6373    -7.5325    -0.0816 C.3     
  20 C20            4.3701    -6.0261    -0.0714 C.3     
  21 O21            0.2721    -5.2049    -0.0278 O.3     
  22 C22           -1.1059    -4.8269    -0.0121 C.3     
  23 C23           -1.9793    -6.0830    -0.0101 C.3     
  24 O24            0.0306     6.4058     0.0337 O.3     
  25 C25            0.4828     7.7614     0.0359 C.3     
  26 F26            1.2452     8.0006    -1.1124 F       
  27 F27           -0.6209     8.6211     0.0504 F       
  28 F28            1.2666     7.9897     1.1720 F       
  29 H29           -0.2856    -2.6510    -0.0087 H       
  30 H30            4.5408    -3.7089    -0.0605 H       
  31 H31            3.8064    -1.3635    -0.0465 H       
  32 H32           -0.4298     3.8289     0.0257 H       
  33 H33            2.6132     6.8278     0.0110 H       
  34 H34            4.3444     5.0809    -0.0153 H       
  35 H35            3.7038     2.7068    -0.0140 H       
  36 H36            5.7126    -7.7107    -0.0929 H       
  37 H37            4.2035    -7.9846     0.8103 H       
  38 H38            4.1863    -7.9756    -0.9695 H       
  39 H39            4.8039    -5.5741    -0.9633 H       
  40 H40            4.8211    -5.5831     0.8165 H       
  41 H41           -1.3115    -4.2400     0.8831 H       
  42 H42           -1.3291    -4.2305    -0.8968 H       
  43 H43           -1.7737    -6.6700    -0.9053 H       
  44 H44           -1.7561    -6.6794     0.8745 H       
  45 H45           -3.0304    -5.7947     0.0018 H       
@<TRIPOS>BOND
   1    1    2 1
   2    1    3 2
   3    2    5 1
   4    3    4 1
   5    3    7 1
   6    4    5 2
   7    5    6 1
   8    6    8 ar
   9    6   12 ar
  10    7   13 ar
  11    7   17 ar
  12    8    9 ar
  13    8   29 1
  14    9   10 ar
  15    9   21 1
  16   10   11 ar
  17   10   18 1
  18   11   12 ar
  19   11   30 1
  20   12   31 1
  21   13   14 ar
  22   13   32 1
  23   14   15 ar
  24   14   24 1
  25   15   16 ar
  26   15   33 1
  27   16   17 ar
  28   16   34 1
  29   17   35 1
  30   18   20 1
  31   19   20 1
  32   19   36 1
  33   19   37 1
  34   19   38 1
  35   20   39 1
  36   20   40 1
  37   21   22 1
  38   22   23 1
  39   22   41 1
  40   22   42 1
  41   23   43 1
  42   23   44 1
  43   23   45 1
  44   24   25 1
  45   25   26 1
  46   25   27 1
  47   25   28 1

#	End of record

