#	Name: ASD01908003
#	Creating user name:	WinNT
#	Creation time:	15. 06. 2019 19:54

#	Modifying user name:	WinNT
#	Modification time:	15. 06. 2019 19:54

#	Program:	/corina/corina34_cracker 3.40 0067  02.08.2006

@<TRIPOS>MOLECULE
ASD01908003
  34   35    0    0    0
SMALL
NO_CHARGES


@<TRIPOS>ATOM
   1 N1            -0.0169     1.3953     0.0097 N.pl3   
   2 N2             0.0021    -0.0041     0.0020 N.2     
   3 C3             1.2430    -0.4084    -0.0120 C.2     
   4 C4             2.0748     0.7315    -0.0138 C.2     
   5 C5             1.2530     1.8372    -0.0000 C.2     
   6 C6             3.5532     0.7380    -0.0275 C.2     
   7 N7             4.2100    -0.3882    -0.0394 N.2     
   8 N8             4.2369     1.9343    -0.0276 N.pl3   
   9 C9             1.7065    -1.8423    -0.0241 C.3     
  10 F10            0.5987    -2.6896    -0.1336 F       
  11 F11            2.5599    -2.0473    -1.1136 F       
  12 F12            2.3913    -2.1211     1.1636 F       
  13 C13           -1.2167     2.2359     0.0202 C.3     
  14 C14           -2.1018     1.8627    -1.1410 C.ar    
  15 C15           -3.0667     0.8845    -0.9867 C.ar    
  16 C16           -3.8793     0.5405    -2.0496 C.ar    
  17 C17           -3.7265     1.1775    -3.2726 C.ar    
  18 C18           -2.7576     2.1587    -3.4247 C.ar    
  19 C19           -1.9513     2.5030    -2.3572 C.ar    
  20 O20           -4.5244     0.8406    -4.3198 O.3     
  21 C21           -4.3107     1.5378    -5.5488 C.3     
  22 H22            1.5705     2.8695     0.0025 H       
  23 H23            5.1799    -0.3839    -0.0483 H       
  24 H24            3.7483     2.7722    -0.0188 H       
  25 H25            5.2069     1.9386    -0.0366 H       
  26 H26           -1.7586     2.0840     0.9537 H       
  27 H27           -0.9272     3.2833    -0.0655 H       
  28 H28           -3.1850     0.3887    -0.0346 H       
  29 H29           -4.6326    -0.2238    -1.9287 H       
  30 H30           -2.6367     2.6559    -4.3758 H       
  31 H31           -1.2000     3.2700    -2.4738 H       
  32 H32           -5.0118     1.1737    -6.2997 H       
  33 H33           -4.4672     2.6052    -5.3929 H       
  34 H34           -3.2902     1.3664    -5.8911 H       
@<TRIPOS>BOND
   1    1    2 1
   2    1    5 1
   3    1   13 1
   4    2    3 2
   5    3    4 1
   6    3    9 1
   7    4    5 2
   8    4    6 1
   9    5   22 1
  10    6    7 2
  11    6    8 1
  12    7   23 1
  13    8   24 1
  14    8   25 1
  15    9   10 1
  16    9   11 1
  17    9   12 1
  18   13   14 1
  19   13   26 1
  20   13   27 1
  21   14   15 ar
  22   14   19 ar
  23   15   16 ar
  24   15   28 1
  25   16   17 ar
  26   16   29 1
  27   17   18 ar
  28   17   20 1
  29   18   19 ar
  30   18   30 1
  31   19   31 1
  32   20   21 1
  33   21   32 1
  34   21   33 1
  35   21   34 1

#	End of record

