#	Name: ASD01920024
#	Creating user name:	WinNT
#	Creation time:	15. 06. 2019 20:11

#	Modifying user name:	WinNT
#	Modification time:	15. 06. 2019 20:11

#	Program:	/corina/corina34_cracker 3.40 0067  02.08.2006

@<TRIPOS>MOLECULE
ASD01920024
  40   43    0    0    0
SMALL
NO_CHARGES


@<TRIPOS>ATOM
   1 N1            -0.0175     1.3626     0.1055 N.am    
   2 C2             0.0023    -0.0037    -0.0000 C.2     
   3 C3            -1.1521    -0.7276    -0.0885 C.2     
   4 C4            -2.3851    -0.0666    -0.0718 C.2     
   5 C5            -2.3959     1.3363     0.0368 C.2     
   6 C6            -1.1848     2.0416     0.1311 C.2     
   7 O7            -3.6723    -0.4339    -0.1363 O.3     
   8 N8            -4.4360     0.5029    -0.0850 N.2     
   9 C9            -3.8259     1.6590     0.0218 C.2     
  10 C10           -4.4486     3.0032     0.1087 C.ar    
  11 O11           -1.1870     3.2570     0.2258 O.2     
  12 C12            1.2465     2.0974     0.1979 C.3     
  13 C13            1.2998    -0.7080    -0.0188 C.ar    
  14 C14           -5.6214     3.2976    -0.5918 C.ar    
  15 C15           -6.1671     4.5608    -0.4829 C.ar    
  16 N16           -5.5965     5.4823     0.2686 N.ar    
  17 C17           -4.4896     5.2454     0.9455 C.ar    
  18 C18           -3.8812     4.0073     0.8978 C.ar    
  19 C19            1.5166    -1.7995     0.8258 C.ar    
  20 C20            2.7286    -2.4541     0.8047 C.ar    
  21 C21            3.7347    -2.0300    -0.0545 C.ar    
  22 C22            3.5231    -0.9449    -0.8961 C.ar    
  23 C23            2.3120    -0.2883    -0.8854 C.ar    
  24 O24            4.9282    -2.6775    -0.0715 O.3     
  25 C25            5.9183    -2.1892    -0.9789 C.3     
  26 H26           -1.1136    -1.8037    -0.1714 H       
  27 H27            1.6348     2.2800    -0.8041 H       
  28 H28            1.0775     3.0494     0.7012 H       
  29 H29            1.9678     1.5094     0.7655 H       
  30 H30           -6.0935     2.5480    -1.2095 H       
  31 H31           -7.0734     4.7978    -1.0205 H       
  32 H32           -4.0560     6.0293     1.5488 H       
  33 H33           -2.9749     3.8203     1.4546 H       
  34 H34            0.7353    -2.1293     1.4945 H       
  35 H35            2.8971    -3.2980     1.4573 H       
  36 H36            4.3079    -0.6182    -1.5623 H       
  37 H37            2.1484     0.5551    -1.5399 H       
  38 H38            6.8209    -2.7939    -0.8916 H       
  39 H39            5.5379    -2.2494    -1.9986 H       
  40 H40            6.1512    -1.1519    -0.7387 H       
@<TRIPOS>BOND
   1    1    2 1
   2    1   12 1
   3    1    6 am
   4    2    3 2
   5    2   13 1
   6    3    4 1
   7    3   26 1
   8    4    5 2
   9    4    7 1
  10    5    6 1
  11    5    9 1
  12    6   11 2
  13    7    8 1
  14    8    9 2
  15    9   10 1
  16   10   14 ar
  17   10   18 ar
  18   12   27 1
  19   12   28 1
  20   12   29 1
  21   13   19 ar
  22   13   23 ar
  23   14   15 ar
  24   14   30 1
  25   15   16 ar
  26   15   31 1
  27   16   17 ar
  28   17   18 ar
  29   17   32 1
  30   18   33 1
  31   19   20 ar
  32   19   34 1
  33   20   21 ar
  34   20   35 1
  35   21   22 ar
  36   21   24 1
  37   22   23 ar
  38   22   36 1
  39   23   37 1
  40   24   25 1
  41   25   38 1
  42   25   39 1
  43   25   40 1

#	End of record

