#	Name: ASD01913154
#	Creating user name:	WinNT
#	Creation time:	15. 06. 2019 20:01

#	Modifying user name:	WinNT
#	Modification time:	15. 06. 2019 20:01

#	Program:	/corina/corina34_cracker 3.40 0067  02.08.2006

@<TRIPOS>MOLECULE
ASD01913154
  45   47    0    0    0
SMALL
NO_CHARGES


@<TRIPOS>ATOM
   1 C1            -0.0713     1.1590    -0.0468 C.ar    
   2 C2            -0.0218    -0.2217    -0.0864 C.ar    
   3 C3             1.1980    -0.8707    -0.1030 C.ar    
   4 C4             2.3747    -0.1363    -0.0800 C.ar    
   5 C5             2.3247     1.2494    -0.0403 C.ar    
   6 C6             1.1016     1.8955    -0.0238 C.ar    
   7 O7             3.5749    -0.7736    -0.0958 O.3     
   8 C8             4.7451     0.0462    -0.0704 C.3     
   9 C9             5.9906    -0.8421    -0.0933 C.3     
  10 C10            7.2247     0.0223    -0.0665 C.2     
  11 N11            8.4464    -0.5466    -0.0804 N.am    
  12 C12            9.6637     0.2785    -0.0548 C.3     
  13 C13           10.5757    -0.2341     1.0649 C.3     
  14 N14           10.8049    -1.6739     0.8850 N.3     
  15 C15            9.5517    -2.4315     1.0007 C.3     
  16 C16            8.5977    -2.0092    -0.1155 C.3     
  17 O17            7.1185     1.2300    -0.0325 O.2     
  18 C18           11.7607    -2.1457     1.7888 C.ar    
  19 C19           11.3918    -3.0322     2.7919 C.ar    
  20 C20           12.3387    -3.4976     3.6839 C.ar    
  21 C21           13.6530    -3.0821     3.5796 C.ar    
  22 C22           14.0254    -2.1981     2.5815 C.ar    
  23 C23           13.0837    -1.7331     1.6820 C.ar    
  24 Cl24          13.5504    -0.6249     0.4299 Cl      
  25 Cl25          15.6769    -1.6783     2.4550 Cl      
  26 F26            1.0510     3.2450     0.0148 F       
  27 H27           -1.0258     1.6643    -0.0384 H       
  28 H28           -0.9375    -0.7940    -0.1039 H       
  29 H29            1.2353    -1.9496    -0.1335 H       
  30 H30            3.2395     1.8231    -0.0220 H       
  31 H31            4.7494     0.7004    -0.9422 H       
  32 H32            4.7461     0.6500     0.8370 H       
  33 H33            5.9863    -1.4964     0.7784 H       
  34 H34            5.9896    -1.4460    -1.0008 H       
  35 H35           10.1795     0.2001    -1.0118 H       
  36 H36            9.3975     1.3180     0.1368 H       
  37 H37           11.5289     0.2934     1.0279 H       
  38 H38           10.1002    -0.0593     2.0300 H       
  39 H39            9.7622    -3.4977     0.9170 H       
  40 H40            9.0904    -2.2262     1.9667 H       
  41 H41            7.6274    -2.4829     0.0333 H       
  42 H42            9.0090    -2.3057    -1.0804 H       
  43 H43           10.3653    -3.3574     2.8749 H       
  44 H44           12.0514    -4.1868     4.4642 H       
  45 H45           14.3907    -3.4477     4.2784 H       
@<TRIPOS>BOND
   1    1    2 ar
   2    1    6 ar
   3    1   27 1
   4    2    3 ar
   5    2   28 1
   6    3    4 ar
   7    3   29 1
   8    4    5 ar
   9    4    7 1
  10    5    6 ar
  11    5   30 1
  12    6   26 1
  13    7    8 1
  14    8    9 1
  15    8   31 1
  16    8   32 1
  17    9   10 1
  18    9   33 1
  19    9   34 1
  20   10   11 am
  21   10   17 2
  22   11   12 1
  23   11   16 1
  24   12   13 1
  25   12   35 1
  26   12   36 1
  27   13   14 1
  28   13   37 1
  29   13   38 1
  30   14   15 1
  31   14   18 1
  32   15   16 1
  33   15   39 1
  34   15   40 1
  35   16   41 1
  36   16   42 1
  37   18   19 ar
  38   18   23 ar
  39   19   20 ar
  40   19   43 1
  41   20   21 ar
  42   20   44 1
  43   21   22 ar
  44   21   45 1
  45   22   23 ar
  46   22   25 1
  47   23   24 1

#	End of record

