#	Name: ASD01151083
#	Creating user name:	WinNT
#	Creation time:	15. 06. 2019 19:05

#	Modifying user name:	WinNT
#	Modification time:	15. 06. 2019 19:05

#	Program:	/corina/corina34_cracker 3.40 0067  02.08.2006

@<TRIPOS>MOLECULE
ASD01151083
  38   39    0    0    0
SMALL
NO_CHARGES


@<TRIPOS>ATOM
   1 C1            -0.0159     1.3209     0.0093 C.2     
   2 C2             0.0021    -0.0041     0.0020 C.2     
   3 C3            -1.3202    -0.5914     0.0123 C.2     
   4 C4            -2.3191     0.3493     0.0276 C.2     
   5 S5            -1.6638     1.9227     0.0359 S.3     
   6 C6             1.2131     2.1929     0.0023 C.3     
   7 C7             1.2710    -0.8167    -0.0157 C.3     
   8 C8             1.7154    -1.1000     1.4206 C.3     
   9 C9            -1.5660    -2.0348     0.0071 C.2     
  10 O10           -1.6574    -2.6400     1.0583 O.2     
  11 O11           -1.6912    -2.6934    -1.1634 O.3     
  12 C12           -1.9339    -4.1232    -1.0926 C.3     
  13 N13           -3.6734     0.0600     0.0391 N.am    
  14 C14           -4.5761     1.0606     0.0537 C.2     
  15 O15           -4.2016     2.2172     0.0568 O.2     
  16 C16           -6.0208     0.7520     0.0660 C.ar    
  17 C17           -6.9585     1.7867     0.0812 C.ar    
  18 C18           -8.3056     1.4923     0.0922 C.ar    
  19 C19           -8.7292     0.1735     0.0881 C.ar    
  20 C20           -7.8039    -0.8571     0.0731 C.ar    
  21 C21           -6.4542    -0.5754     0.0567 C.ar    
  22 Cl22         -10.4269    -0.1891     0.1026 Cl      
  23 H23            1.4996     2.4087    -1.0270 H       
  24 H24            0.9994     3.1262     0.5232 H       
  25 H25            2.0293     1.6746     0.5055 H       
  26 H26            1.0917    -1.7592    -0.5331 H       
  27 H27            2.0516    -0.2603    -0.5345 H       
  28 H28            0.9348    -1.6565     1.9394 H       
  29 H29            2.6332    -1.6878     1.4078 H       
  30 H30            1.8947    -0.1576     1.9381 H       
  31 H31           -1.1076    -4.6066    -0.5714 H       
  32 H32           -2.8621    -4.3079    -0.5519 H       
  33 H33           -2.0141    -4.5285    -2.1012 H       
  34 H34           -3.9723    -0.8628     0.0366 H       
  35 H35           -6.6294     2.8153     0.0847 H       
  36 H36           -9.0318     2.2916     0.1043 H       
  37 H37           -8.1402    -1.8834     0.0700 H       
  38 H38           -5.7336    -1.3798     0.0446 H       
@<TRIPOS>BOND
   1    1    2 2
   2    1    6 1
   3    1    5 1
   4    2    3 1
   5    2    7 1
   6    3    4 2
   7    3    9 1
   8    4    5 1
   9    4   13 1
  10    6   23 1
  11    6   24 1
  12    6   25 1
  13    7    8 1
  14    7   26 1
  15    7   27 1
  16    8   28 1
  17    8   29 1
  18    8   30 1
  19    9   10 2
  20    9   11 1
  21   11   12 1
  22   12   31 1
  23   12   32 1
  24   12   33 1
  25   13   14 am
  26   13   34 1
  27   14   15 2
  28   14   16 1
  29   16   17 ar
  30   16   21 ar
  31   17   18 ar
  32   17   35 1
  33   18   19 ar
  34   18   36 1
  35   19   20 ar
  36   19   22 1
  37   20   21 ar
  38   20   37 1
  39   21   38 1

#	End of record

