#	Name: ASD03430502
#	Creating user name:	WinNT
#	Creation time:	15. 06. 2019 20:41

#	Modifying user name:	WinNT
#	Modification time:	15. 06. 2019 20:41

#	Program:	/corina/corina34_cracker 3.40 0067  02.08.2006

@<TRIPOS>MOLECULE
ASD03430502
  53   58    0    0    0
SMALL
NO_CHARGES


@<TRIPOS>ATOM
   1 C1            -0.0168     1.3907     0.0097 C.ar    
   2 C2             0.0021    -0.0041     0.0020 C.ar    
   3 C3             1.2077    -0.6747    -0.0131 C.ar    
   4 C4             2.3964     0.0334    -0.0202 C.ar    
   5 C5             2.3841     1.4165    -0.0122 C.ar    
   6 C6             1.1846     2.0987     0.0020 C.ar    
   7 C7            -1.3072     2.1165     0.0197 C.2     
   8 N8            -2.4262     1.4535     0.0214 N.2     
   9 N9            -1.3228     3.5010     0.0273 N.pl3   
  10 C10            1.2299    -2.1815    -0.0214 C.3     
  11 O11            2.6546    -4.6731    -5.2355 O.3     
  12 C12            2.8537    -3.3714    -5.5885 C.ar    
  13 C13            2.4081    -2.5060    -4.5921 C.ar    
  14 C14            1.8847    -3.3688    -3.4762 C.3     
  15 C15            2.4482    -4.7565    -3.8125 C.3     
  16 O16            4.0290    -0.7531    -7.9574 O.3     
  17 C17            3.5179    -1.4654    -6.9151 C.ar    
  18 C18            3.0543    -0.6235    -5.9119 C.ar    
  19 C19            3.2862     0.7992    -6.3815 C.3     
  20 C20            3.5423     0.5980    -7.8939 C.3     
  21 C21            2.5067    -1.1413    -4.7583 C.ar    
  22 C22            3.4095    -2.8411    -6.7460 C.ar    
  23 N23            1.2240    -2.6623    -1.4052 N.am    
  24 C24            2.3391    -2.8932    -2.1264 C.2     
  25 C25            0.3862    -3.3746    -3.4118 C.ar    
  26 C26           -0.6033    -3.7061    -4.3103 C.ar    
  27 C27           -1.9337    -3.6050    -3.9445 C.ar    
  28 C28           -2.2674    -3.1698    -2.6749 C.ar    
  29 C29           -1.2800    -2.8363    -1.7715 C.ar    
  30 C30            0.0619    -2.9358    -2.1307 C.ar    
  31 O31            3.4851    -2.7462    -1.7571 O.2     
  32 O32           -3.6604     2.1477     0.0310 O.3     
  33 H33           -0.9251    -0.5579     0.0083 H       
  34 H34            3.3376    -0.4960    -0.0317 H       
  35 H35            3.3152     1.9637    -0.0174 H       
  36 H36            1.1762     3.1787     0.0075 H       
  37 H37           -0.4882     3.9954     0.0261 H       
  38 H38           -2.1682     3.9765     0.0339 H       
  39 H39            2.1301    -2.5343     0.4820 H       
  40 H40            0.3504    -2.5607     0.4988 H       
  41 H41            1.7259    -5.5364    -3.5712 H       
  42 H42            3.3916    -4.9272    -3.2939 H       
  43 H43            2.4016     1.4137    -6.2145 H       
  44 H44            4.1585     1.2334    -5.8930 H       
  45 H45            4.2966     1.2975    -8.2542 H       
  46 H46            2.6163     0.7018    -8.4595 H       
  47 H47            2.1540    -0.4768    -3.9835 H       
  48 H48            3.7615    -3.5044    -7.5223 H       
  49 H49           -0.3405    -4.0456    -5.3013 H       
  50 H50           -2.7099    -3.8651    -4.6490 H       
  51 H51           -3.3060    -3.0908    -2.3895 H       
  52 H52           -1.5484    -2.4964    -0.7821 H       
  53 H53           -4.4362     1.5705     0.0316 H       
@<TRIPOS>BOND
   1    1    2 ar
   2    1    6 ar
   3    1    7 1
   4    2    3 ar
   5    2   33 1
   6    3    4 ar
   7    3   10 1
   8    4    5 ar
   9    4   34 1
  10    5    6 ar
  11    5   35 1
  12    6   36 1
  13    7    8 2
  14    7    9 1
  15    8   32 1
  16    9   37 1
  17    9   38 1
  18   10   23 1
  19   10   39 1
  20   10   40 1
  21   11   12 1
  22   11   15 1
  23   12   13 ar
  24   12   22 ar
  25   13   14 1
  26   13   21 ar
  27   14   15 1
  28   14   24 1
  29   14   25 1
  30   15   41 1
  31   15   42 1
  32   16   17 1
  33   16   20 1
  34   17   18 ar
  35   17   22 ar
  36   18   19 1
  37   18   21 ar
  38   19   20 1
  39   19   43 1
  40   19   44 1
  41   20   45 1
  42   20   46 1
  43   21   47 1
  44   22   48 1
  45   23   24 am
  46   23   30 1
  47   24   31 2
  48   25   26 ar
  49   25   30 ar
  50   26   27 ar
  51   26   49 1
  52   27   28 ar
  53   27   50 1
  54   28   29 ar
  55   28   51 1
  56   29   30 ar
  57   29   52 1
  58   32   53 1

#	End of record

