#	Name: ASD05430577
#	Creating user name:	WinNT
#	Creation time:	15. 06. 2019 21:00

#	Modifying user name:	WinNT
#	Modification time:	15. 06. 2019 21:00

#	Program:	/corina/corina34_cracker 3.40 0067  02.08.2006

@<TRIPOS>MOLECULE
ASD05430577
  33   34    0    0    0
SMALL
NO_CHARGES


@<TRIPOS>ATOM
   1 C1            -0.0167     1.3779     0.0096 C.ar    
   2 C2             0.0021    -0.0041     0.0020 C.ar    
   3 C3             1.1696     2.0885     0.0021 C.ar    
   4 C4             2.3803     1.4161    -0.0131 C.ar    
   5 C5             2.3992     0.0231    -0.0209 C.ar    
   6 C6             1.2072    -0.6821    -0.0128 C.ar    
   7 C7             1.1449     3.5953     0.0100 C.3     
   8 C8             1.2235    -2.1890    -0.0210 C.3     
   9 C9             0.5203    -2.7135     1.2325 C.3     
  10 C10            0.4953    -2.7001    -1.2658 C.3     
  11 C11            0.4038     4.0997    -1.2298 C.3     
  12 C12            0.4272     4.0871     1.2685 C.3     
  13 O13            3.6677     1.8697    -0.0229 O.3     
  14 C14            4.4745     0.7456     0.3753 C.3     
  15 O15            3.6983    -0.3954    -0.0357 O.3     
  16 H16           -0.9599     1.9039     0.0169 H       
  17 H17           -0.9265    -0.5556     0.0080 H       
  18 H18            2.1665     3.9754     0.0023 H       
  19 H19            2.2549    -2.5411    -0.0332 H       
  20 H20           -0.5112    -2.3614     1.2447 H       
  21 H21            0.5321    -3.8034     1.2265 H       
  22 H22            1.0390    -2.3494     2.1193 H       
  23 H23            0.9963    -2.3264    -2.1588 H       
  24 H24            0.5071    -3.7900    -1.2718 H       
  25 H25           -0.5361    -2.3480    -1.2536 H       
  26 H26           -0.6178     3.7196    -1.2222 H       
  27 H27            0.3859     5.1896    -1.2241 H       
  28 H28            0.9151     3.7494    -2.1264 H       
  29 H29            0.4093     5.1769     1.2742 H       
  30 H30           -0.5944     3.7069     1.2762 H       
  31 H31            0.9552     3.7277     2.1518 H       
  32 H32            5.4347     0.7615    -0.1403 H       
  33 H33            4.6189     0.7414     1.4557 H       
@<TRIPOS>BOND
   1    1    2 ar
   2    1    3 ar
   3    1   16 1
   4    2    6 ar
   5    2   17 1
   6    3    4 ar
   7    3    7 1
   8    4    5 ar
   9    4   13 1
  10    5    6 ar
  11    5   15 1
  12    6    8 1
  13    7   11 1
  14    7   12 1
  15    7   18 1
  16    8    9 1
  17    8   10 1
  18    8   19 1
  19    9   20 1
  20    9   21 1
  21    9   22 1
  22   10   23 1
  23   10   24 1
  24   10   25 1
  25   11   26 1
  26   11   27 1
  27   11   28 1
  28   12   29 1
  29   12   30 1
  30   12   31 1
  31   13   14 1
  32   14   15 1
  33   14   32 1
  34   14   33 1

#	End of record

