#	Name: ASD04880900
#	Creating user name:	WinNT
#	Creation time:	15. 06. 2019 20:53

#	Modifying user name:	WinNT
#	Modification time:	15. 06. 2019 20:53

#	Program:	/corina/corina34_cracker 3.40 0067  02.08.2006

@<TRIPOS>MOLECULE
ASD04880900
  74   78    0    0    0
SMALL
NO_CHARGES


@<TRIPOS>ATOM
   1 C1            -0.4554     2.3474     3.1221 C.ar    
   2 C2            -0.7175     1.3690     2.1809 C.ar    
   3 C3             0.2295     1.0550     1.2231 C.ar    
   4 C4             1.4406     1.7181     1.2040 C.ar    
   5 C5             1.7072     2.7017     2.1483 C.ar    
   6 C6             0.7539     3.0146     3.1087 C.ar    
   7 N7             2.9314     3.3741     2.1321 N.3     
   8 C8             3.0840     4.1606     0.9001 C.3     
   9 C9             4.3984     4.9425     0.9568 C.3     
  10 N10            5.5171     4.0038     1.1208 N.3     
  11 C11            5.3645     3.2172     2.3528 C.3     
  12 C12            4.0501     2.4353     2.2961 C.3     
  13 C13            6.7376     4.6741     1.1047 C.ar    
  14 C14            7.1750     5.2992    -0.0664 C.ar    
  15 C15            8.3862     5.9648    -0.0820 C.ar    
  16 C16            9.1699     6.0106     1.0744 C.ar    
  17 C17            8.7264     5.3834     2.2421 C.ar    
  18 C18            7.5165     4.7256     2.2550 C.ar    
  19 C19            1.0387     4.0807     4.1349 C.3     
  20 N20            6.3868     5.2506    -1.2235 N.am    
  21 C21           10.4636     6.7195     1.0624 C.2     
  22 O22           10.8488     7.2645     0.0460 O.2     
  23 N23           11.2186     6.7631     2.1780 N.am    
  24 C24           12.5033     7.4670     2.1661 C.3     
  25 C25           13.1532     7.3657     3.5475 C.3     
  26 C26           14.4949     8.1009     3.5350 C.3     
  27 C27           15.1449     7.9996     4.9164 C.3     
  28 C28            5.5898     6.2292    -3.3092 C.2     
  29 C29            6.4801     6.2306    -2.1441 C.2     
  30 O30            7.3034     7.1167    -2.0083 O.2     
  31 C31            5.5820     7.1537    -4.3142 C.2     
  32 C32            4.5768     6.7641    -5.2131 C.2     
  33 C33            4.0222     5.6332    -4.7237 C.2     
  34 O34            4.6388     5.3111    -3.5791 O.3     
  35 C35           15.5324     6.5403     5.2244 C.3     
  36 O36           16.9635     6.4961     5.3522 O.3     
  37 C37           17.3903     7.8109     5.7688 C.3     
  38 C38           16.4916     8.7627     4.9389 C.3     
  39 H39           -1.1989     2.5932     3.8659 H       
  40 H40           -1.6638     0.8486     2.1938 H       
  41 H41            0.0218     0.2901     0.4896 H       
  42 H42            2.1798     1.4722     0.4560 H       
  43 H43            3.0960     3.4909     0.0402 H       
  44 H44            2.2504     4.8568     0.8076 H       
  45 H45            4.5277     5.5041     0.0316 H       
  46 H46            4.3754     5.6319     1.8008 H       
  47 H47            6.1981     2.5210     2.4453 H       
  48 H48            5.3525     3.8870     3.2127 H       
  49 H49            3.9208     1.8737     3.2213 H       
  50 H50            4.0731     1.7460     1.4521 H       
  51 H51            8.7265     6.4483    -0.9858 H       
  52 H52            9.3314     5.4178     3.1362 H       
  53 H53            7.1740     4.2452     3.1596 H       
  54 H54            1.4253     3.6173     5.0426 H       
  55 H55            1.7778     4.7775     3.7395 H       
  56 H56            0.1189     4.6186     4.3649 H       
  57 H57            5.7738     4.5117    -1.3621 H       
  58 H58           10.9113     6.3283     2.9889 H       
  59 H59           13.1588     7.0144     1.4221 H       
  60 H60           12.3407     8.5157     1.9171 H       
  61 H61           12.4978     7.8184     4.2915 H       
  62 H62           13.3158     6.3171     3.7965 H       
  63 H63           15.1504     7.6483     2.7910 H       
  64 H64           14.3323     9.1496     3.2860 H       
  65 H65           14.4725     8.3856     5.6826 H       
  66 H66            6.2245     8.0176    -4.4004 H       
  67 H67            4.2986     7.2728    -6.1242 H       
  68 H68            3.2171     5.0782    -5.1821 H       
  69 H69           15.0670     6.2222     6.1574 H       
  70 H70           15.2129     5.8919     4.4086 H       
  71 H71           17.2156     7.9511     6.8356 H       
  72 H72           18.4416     7.9677     5.5272 H       
  73 H73           16.8848     8.8876     3.9300 H       
  74 H74           16.3840     9.7272     5.4351 H       
@<TRIPOS>BOND
   1    1    2 ar
   2    1    6 ar
   3    1   39 1
   4    2    3 ar
   5    2   40 1
   6    3    4 ar
   7    3   41 1
   8    4    5 ar
   9    4   42 1
  10    5    6 ar
  11    5    7 1
  12    6   19 1
  13    7    8 1
  14    7   12 1
  15    8    9 1
  16    8   43 1
  17    8   44 1
  18    9   10 1
  19    9   45 1
  20    9   46 1
  21   10   11 1
  22   10   13 1
  23   11   12 1
  24   11   47 1
  25   11   48 1
  26   12   49 1
  27   12   50 1
  28   13   14 ar
  29   13   18 ar
  30   14   15 ar
  31   14   20 1
  32   15   16 ar
  33   15   51 1
  34   16   17 ar
  35   16   21 1
  36   17   18 ar
  37   17   52 1
  38   18   53 1
  39   19   54 1
  40   19   55 1
  41   19   56 1
  42   20   29 am
  43   20   57 1
  44   21   22 2
  45   21   23 am
  46   23   24 1
  47   23   58 1
  48   24   25 1
  49   24   59 1
  50   24   60 1
  51   25   26 1
  52   25   61 1
  53   25   62 1
  54   26   27 1
  55   26   63 1
  56   26   64 1
  57   27   35 1
  58   27   38 1
  59   27   65 1
  60   28   29 1
  61   28   34 1
  62   28   31 2
  63   29   30 2
  64   31   32 1
  65   31   66 1
  66   32   33 2
  67   32   67 1
  68   33   34 1
  69   33   68 1
  70   35   36 1
  71   35   69 1
  72   35   70 1
  73   36   37 1
  74   37   38 1
  75   37   71 1
  76   37   72 1
  77   38   73 1
  78   38   74 1

#	End of record

