#	Name: ASD03092500
#	Creating user name:	WinNT
#	Creation time:	15. 06. 2019 20:32

#	Modifying user name:	WinNT
#	Modification time:	15. 06. 2019 20:32

#	Program:	/corina/corina34_cracker 3.40 0067  02.08.2006

@<TRIPOS>MOLECULE
ASD03092500
  35   37    0    0    0
SMALL
NO_CHARGES


@<TRIPOS>ATOM
   1 C1             0.2303     1.4946    -0.0528 C.3     
   2 C2             0.1098    -0.0073    -0.0253 C.2     
   3 C3            -0.0624    -0.8287    -1.0971 C.2     
   4 N4            -0.1237    -2.0953    -0.6618 N.2     
   5 N5            -0.0008    -2.1236     0.6193 N.2     
   6 N6             0.1579    -0.8069     1.0759 N.pl3   
   7 C7             0.3297    -0.3947     2.4054 C.ar    
   8 C8             1.3339     0.5066     2.7297 C.ar    
   9 C9             1.5006     0.9113     4.0401 C.ar    
  10 C10            0.6687     0.4193     5.0287 C.ar    
  11 C11           -0.3331    -0.4790     4.7097 C.ar    
  12 C12           -0.5088    -0.8834     3.3998 C.ar    
  13 Cl13          -1.7711    -2.0056     2.9985 Cl      
  14 C14            0.8544     0.8624     6.4570 C.3     
  15 F15            0.0785     2.0016     6.6965 F       
  16 F16            0.4545    -0.1639     7.3195 F       
  17 F17            2.2027     1.1610     6.6811 F       
  18 C18           -0.1652    -0.3942    -2.5128 C.ar    
  19 C19           -0.9424     0.7124    -2.8486 C.ar    
  20 C20           -1.0361     1.1139    -4.1650 C.ar    
  21 C21           -0.3574     0.4163    -5.1547 C.ar    
  22 O22           -0.4516     0.8141    -6.4508 O.3     
  23 C23            0.4176    -0.6864    -4.8231 C.ar    
  24 C24            0.5199    -1.0887    -3.5076 C.ar    
  25 H25            1.2836     1.7743    -0.0724 H       
  26 H26           -0.2653     1.8826    -0.9427 H       
  27 H27           -0.2403     1.9132     0.8368 H       
  28 H28            1.9848     0.8911     1.9584 H       
  29 H29            2.2821     1.6128     4.2926 H       
  30 H30           -0.9812    -0.8619     5.4842 H       
  31 H31           -1.4712     1.2551    -2.0791 H       
  32 H32           -1.6384     1.9715    -4.4259 H       
  33 H33            0.2225     1.4549    -6.7155 H       
  34 H34            0.9442    -1.2275    -5.5953 H       
  35 H35            1.1269    -1.9439    -3.2496 H       
@<TRIPOS>BOND
   1    1    2 1
   2    1   25 1
   3    1   26 1
   4    1   27 1
   5    2    6 1
   6    2    3 2
   7    3    4 1
   8    3   18 1
   9    4    5 2
  10    5    6 1
  11    6    7 1
  12    7   12 ar
  13    7    8 ar
  14    8    9 ar
  15    8   28 1
  16    9   10 ar
  17    9   29 1
  18   10   11 ar
  19   10   14 1
  20   11   12 ar
  21   11   30 1
  22   12   13 1
  23   14   15 1
  24   14   16 1
  25   14   17 1
  26   18   24 ar
  27   18   19 ar
  28   19   20 ar
  29   19   31 1
  30   20   21 ar
  31   20   32 1
  32   21   22 1
  33   21   23 ar
  34   22   33 1
  35   23   24 ar
  36   23   34 1
  37   24   35 1

#	End of record

