#	Name: ASD09610091
#	Creating user name:	WinNT
#	Creation time:	15. 06. 2019 21:22

#	Modifying user name:	WinNT
#	Modification time:	15. 06. 2019 21:22

#	Program:	/corina/corina34_cracker 3.40 0067  02.08.2006

@<TRIPOS>MOLECULE
ASD09610091
  45   46    0    0    0
SMALL
NO_CHARGES


@<TRIPOS>ATOM
   1 C1             0.0323     1.0629     0.0724 C.2     
   2 O2            -0.5424     0.5164    -0.8502 O.2     
   3 C3             1.2971     1.7777    -0.1679 C.ar    
   4 C4             1.2925     3.1645    -0.3838 C.ar    
   5 C5             2.4892     3.8294    -0.6089 C.ar    
   6 C6             3.6860     3.1211    -0.6199 C.ar    
   7 C7             3.6889     1.7468    -0.4062 C.ar    
   8 C8             2.5088     1.0777    -0.1762 C.ar    
   9 C9             2.5206    -0.4104     0.0612 C.3     
  10 O10            4.8562     3.7738    -0.8404 O.3     
  11 C11            6.0487     2.9864    -0.8385 C.3     
  12 O12            2.4918     5.1740    -0.8195 O.3     
  13 C13            2.7112     6.0086     0.3196 C.3     
  14 O14            0.1221     3.8523    -0.3728 O.3     
  15 C15           -0.5063     4.0836    -1.6352 C.3     
  16 C16            0.1686     1.5347     2.5248 C.ar    
  17 C17           -0.5410     1.0147     1.4307 C.ar    
  18 C18           -1.8029     0.4500     1.6520 C.ar    
  19 C19           -2.2961     0.4298     2.9453 C.ar    
  20 C20           -1.5358     0.9627     3.9719 C.ar    
  21 N21           -0.3490     1.4900     3.7403 N.ar    
  22 C22           -2.6044    -0.1210     0.5107 C.3     
  23 O23            1.3934     2.0806     2.3345 O.3     
  24 C24            2.1104     2.4883     3.5014 C.3     
  25 Br25          -3.9945    -0.3191     3.3063 Br      
  26 H26            4.6220     1.2031    -0.4164 H       
  27 H27            2.4935    -0.9312    -0.8960 H       
  28 H28            3.4280    -0.6854     0.5989 H       
  29 H29            1.6489    -0.6910     0.6523 H       
  30 H30            6.1621     2.5012     0.1309 H       
  31 H31            5.9846     2.2282    -1.6190 H       
  32 H32            6.9088     3.6291    -1.0260 H       
  33 H33            2.7754     7.0489     0.0008 H       
  34 H34            1.8834     5.8934     1.0193 H       
  35 H35            3.6422     5.7200     0.8076 H       
  36 H36           -1.3835     4.7150    -1.4942 H       
  37 H37            0.1955     4.5810    -2.3047 H       
  38 H38           -0.8102     3.1313    -2.0698 H       
  39 H39           -1.9214     0.9469     4.9806 H       
  40 H40           -2.2807    -1.1434     0.3152 H       
  41 H41           -3.6624    -0.1187     0.7728 H       
  42 H42           -2.4497     0.4859    -0.3814 H       
  43 H43            1.4993     3.1814     4.0796 H       
  44 H44            2.3420     1.6138     4.1095 H       
  45 H45            3.0367     2.9805     3.2052 H       
@<TRIPOS>BOND
   1    1    2 2
   2    1    3 1
   3    1   17 1
   4    3    4 ar
   5    3    8 ar
   6    4    5 ar
   7    4   14 1
   8    5    6 ar
   9    5   12 1
  10    6    7 ar
  11    6   10 1
  12    7    8 ar
  13    7   26 1
  14    8    9 1
  15    9   27 1
  16    9   28 1
  17    9   29 1
  18   10   11 1
  19   11   30 1
  20   11   31 1
  21   11   32 1
  22   12   13 1
  23   13   33 1
  24   13   34 1
  25   13   35 1
  26   14   15 1
  27   15   36 1
  28   15   37 1
  29   15   38 1
  30   16   17 ar
  31   16   21 ar
  32   16   23 1
  33   17   18 ar
  34   18   19 ar
  35   18   22 1
  36   19   20 ar
  37   19   25 1
  38   20   21 ar
  39   20   39 1
  40   22   40 1
  41   22   41 1
  42   22   42 1
  43   23   24 1
  44   24   43 1
  45   24   44 1
  46   24   45 1

#	End of record

