#	Name: ASD03090254
#	Creating user name:	WinNT
#	Creation time:	15. 06. 2019 20:28

#	Modifying user name:	WinNT
#	Modification time:	15. 06. 2019 20:28

#	Program:	/corina/corina34_cracker 3.40 0067  02.08.2006

@<TRIPOS>MOLECULE
ASD03090254
  46   48    0    0    0
SMALL
NO_CHARGES


@<TRIPOS>ATOM
   1 N1             0.0989     1.4048     0.6976 N.ar    
   2 C2             0.2168     0.4772    -0.2319 C.ar    
   3 C3             1.4048    -0.2177    -0.3946 C.ar    
   4 C4             2.4865     0.0821     0.4485 C.ar    
   5 C5             2.3107     1.0745     1.4182 C.ar    
   6 C6             1.0919     1.7148     1.5086 C.ar    
   7 C7             3.7750    -0.6315     0.3154 C.2     
   8 N8             5.7707    -3.5132     0.0513 N.pl3   
   9 C9             4.9231    -4.6230    -0.0292 C.ar    
  10 C10            3.6929    -4.5138    -0.6642 C.ar    
  11 C11            2.8575    -5.6110    -0.7425 C.ar    
  12 C12            3.2457    -6.8190    -0.1885 C.ar    
  13 C13            4.4719    -6.9301     0.4457 C.ar    
  14 C14            5.3130    -5.8374     0.5209 C.ar    
  15 N15            3.9353    -1.9388     0.2586 N.2     
  16 C16            5.2320    -2.2282     0.1388 C.2     
  17 N17            5.9203    -1.1099     0.1173 N.2     
  18 N18            4.9960    -0.0582     0.2246 N.pl3   
  19 C19            5.2962     1.3757     0.2435 C.3     
  20 F20            2.4270    -7.8908    -0.2662 F       
  21 C21            5.1795     1.9317    -1.1523 C.2     
  22 N22            5.4129     3.2398    -1.3782 N.am    
  23 O23            4.8756     1.2022    -2.0722 O.2     
  24 C24            5.2995     3.7804    -2.7351 C.3     
  25 O25            1.5205    -1.1728    -1.3531 O.3     
  26 C26            0.3722    -1.4164    -2.1681 C.3     
  27 C27            4.8913    -8.2460     1.0486 C.3     
  28 F28            6.1575    -8.1111     1.6280 F       
  29 F29            3.9679    -8.6252     2.0288 F       
  30 F30            4.9378    -9.2234     0.0487 F       
  31 H31           -0.6228     0.2559    -0.8742 H       
  32 H32            3.1174     1.3354     2.0872 H       
  33 H33            0.9487     2.4822     2.2550 H       
  34 H34            6.7329    -3.6364     0.0463 H       
  35 H35            3.3895    -3.5716    -1.0962 H       
  36 H36            1.9005    -5.5265    -1.2359 H       
  37 H37            6.2692    -5.9245     1.0155 H       
  38 H38            4.5898     1.8861     0.8982 H       
  39 H39            6.3102     1.5298     0.6125 H       
  40 H40            5.6560     3.8232    -0.6424 H       
  41 H41            6.0059     3.2699    -3.3898 H       
  42 H42            4.2855     3.6262    -3.1040 H       
  43 H43            5.5228     4.8471    -2.7210 H       
  44 H44           -0.4597    -1.7324    -1.5386 H       
  45 H45            0.1012    -0.5024    -2.6966 H       
  46 H46            0.5992    -2.2002    -2.8907 H       
@<TRIPOS>BOND
   1    1    2 ar
   2    1    6 ar
   3    2    3 ar
   4    2   31 1
   5    3    4 ar
   6    3   25 1
   7    4    5 ar
   8    4    7 1
   9    5    6 ar
  10    5   32 1
  11    6   33 1
  12    7   15 2
  13    7   18 1
  14    8    9 1
  15    8   16 1
  16    8   34 1
  17    9   10 ar
  18    9   14 ar
  19   10   11 ar
  20   10   35 1
  21   11   12 ar
  22   11   36 1
  23   12   13 ar
  24   12   20 1
  25   13   14 ar
  26   13   27 1
  27   14   37 1
  28   15   16 1
  29   16   17 2
  30   17   18 1
  31   18   19 1
  32   19   21 1
  33   19   38 1
  34   19   39 1
  35   21   22 am
  36   21   23 2
  37   22   24 1
  38   22   40 1
  39   24   41 1
  40   24   42 1
  41   24   43 1
  42   25   26 1
  43   26   44 1
  44   26   45 1
  45   26   46 1
  46   27   28 1
  47   27   29 1
  48   27   30 1

#	End of record

