#	Name: ASD01881463
#	Creating user name:	WinNT
#	Creation time:	15. 06. 2019 19:42

#	Modifying user name:	WinNT
#	Modification time:	15. 06. 2019 19:42

#	Program:	/corina/corina34_cracker 3.40 0067  02.08.2006

@<TRIPOS>MOLECULE
ASD01881463
  54   58    0    0    0
SMALL
NO_CHARGES


@<TRIPOS>ATOM
   1 C1            -2.0979     1.4684     0.4114 C.3     
   2 C2             0.7698     9.8271     4.2676 C.ar    
   3 C3             0.7194     8.6979     3.4756 C.ar    
   4 C4            -0.2797    10.1274     5.1167 C.ar    
   5 C5            -1.3869     9.2979     5.1778 C.ar    
   6 C6            -1.4483     8.1655     4.3899 C.ar    
   7 C7            -0.3925     7.8586     3.5323 C.ar    
   8 C8            -0.4523     6.6449     2.6837 C.2     
   9 C9            -0.4993     6.7577     1.3072 C.2     
  10 C10           -0.4558     5.3584     3.2753 C.2     
  11 C11           -0.5102     4.2572     2.5028 C.2     
  12 N12           -0.5626     4.3592     1.1425 N.pl3   
  13 C13           -0.5555     5.5887     0.5292 C.2     
  14 C14           -0.6232     3.4430     0.1373 C.2     
  15 N15           -0.6550     4.1000    -0.9934 N.2     
  16 N16           -0.6148     5.3674    -0.7750 N.2     
  17 C17           -0.6484     1.9448     0.2980 C.3     
  18 Cl18          -2.6994     9.6818     6.2472 Cl      
  19 C19           -0.2182    11.3619     5.9787 C.3     
  20 C20           -2.3434    -0.0409     0.4637 C.3     
  21 C21           -2.5238     0.8077     1.7240 C.3     
  22 N22            0.0495    10.9747     7.3702 N.3     
  23 C23            0.2107    12.1593     8.2249 C.3     
  24 C24            0.4083    11.7150     9.6761 C.3     
  25 N25            1.5877    10.8425     9.7623 N.3     
  26 C26            1.4265     9.6579     8.9077 C.3     
  27 C27            1.2289    10.1022     7.4565 C.3     
  28 C28           -0.4910     8.1140     0.6503 C.3     
  29 F29            0.8194     8.4526     0.2962 F       
  30 F30           -1.2905     8.0812    -0.4973 F       
  31 F31           -0.9942     9.0672     1.5421 F       
  32 H32           -2.8359     2.0807    -0.1069 H       
  33 H33            1.6328    10.4752     4.2275 H       
  34 H34            1.5397     8.4650     2.8129 H       
  35 H35           -2.3119     7.5187     4.4382 H       
  36 H36           -0.4143     5.2602     4.3501 H       
  37 H37           -0.5120     3.2811     2.9650 H       
  38 H38           -0.1031     1.6669     1.2000 H       
  39 H39           -0.1794     1.4785    -0.5684 H       
  40 H40            0.5795    12.0140     5.6231 H       
  41 H41           -1.1702    11.8901     5.9253 H       
  42 H42           -3.2432    -0.4215    -0.0198 H       
  43 H43           -1.4723    -0.6944     0.4174 H       
  44 H44           -1.7713     0.7124     2.5068 H       
  45 H45           -3.5422     0.9853     2.0696 H       
  46 H46            1.0807    12.7284     7.8972 H       
  47 H47           -0.6803    12.7831     8.1536 H       
  48 H48            0.5570    12.5909    10.3075 H       
  49 H49           -0.4732    11.1692    10.0125 H       
  50 H50            2.4288    11.3471     9.5259 H       
  51 H51            2.3175     9.0341     8.9789 H       
  52 H52            0.5565     9.0887     9.2354 H       
  53 H53            1.0802     9.2262     6.8250 H       
  54 H54            2.1104    10.6480     7.1200 H       
@<TRIPOS>BOND
   1    1   20 1
   2    1   17 1
   3    1   21 1
   4    1   32 1
   5    2    3 ar
   6    2    4 ar
   7    2   33 1
   8    3    7 ar
   9    3   34 1
  10    4    5 ar
  11    4   19 1
  12    5    6 ar
  13    5   18 1
  14    6    7 ar
  15    6   35 1
  16    7    8 1
  17    8    9 2
  18    8   10 1
  19    9   28 1
  20    9   13 1
  21   10   11 2
  22   10   36 1
  23   11   12 1
  24   11   37 1
  25   12   13 1
  26   12   14 1
  27   13   16 2
  28   14   15 2
  29   14   17 1
  30   15   16 1
  31   17   38 1
  32   17   39 1
  33   19   22 1
  34   19   40 1
  35   19   41 1
  36   20   21 1
  37   20   42 1
  38   20   43 1
  39   21   44 1
  40   21   45 1
  41   22   23 1
  42   22   27 1
  43   23   24 1
  44   23   46 1
  45   23   47 1
  46   24   25 1
  47   24   48 1
  48   24   49 1
  49   25   26 1
  50   25   50 1
  51   26   27 1
  52   26   51 1
  53   26   52 1
  54   27   53 1
  55   27   54 1
  56   28   29 1
  57   28   30 1
  58   28   31 1

#	End of record

