#	Name: ASD08150257
#	Creating user name:	WinNT
#	Creation time:	15. 06. 2019 21:15

#	Modifying user name:	WinNT
#	Modification time:	15. 06. 2019 21:15

#	Program:	/corina/corina34_cracker 3.40 0067  02.08.2006

@<TRIPOS>MOLECULE
ASD08150257
  48   52    0    0    0
SMALL
NO_CHARGES


@<TRIPOS>ATOM
   1 C1            -0.0034     1.3345    -0.0174 C.2     
   2 C2             0.0507    -0.1390    -0.0116 C.ar    
   3 C3             1.2885    -0.7999    -0.0138 C.ar    
   4 C4             1.3267    -2.1868    -0.0078 C.ar    
   5 C5             0.1512    -2.9116     0.0002 C.ar    
   6 C6            -1.0724    -2.2627     0.0023 C.ar    
   7 C7            -1.1298    -0.8853     0.0018 C.ar    
   8 O8             1.0259     1.9801    -0.0240 O.2     
   9 O9            -1.1942     1.9649    -0.0209 O.3     
  10 N10            4.1451     0.9649    -1.2984 N.2     
  11 C11            3.0439     0.2834    -1.2088 C.2     
  12 N12            2.4750    -0.0660    -0.0223 N.am    
  13 C13            3.0503     0.2929     1.1490 C.2     
  14 C14            4.2991     1.0658     1.0812 C.ar    
  15 C15            4.9702     1.4834     2.2288 C.ar    
  16 C16            6.1375     2.2051     2.1078 C.ar    
  17 C17            6.6477     2.5180     0.8546 C.ar    
  18 C18            6.0000     2.1149    -0.2915 C.ar    
  19 C19            4.8152     1.3823    -0.1951 C.ar    
  20 C20            2.3603    -0.1421    -2.4826 C.3     
  21 S21            3.3139     0.4455    -3.9044 S.3     
  22 N22            3.7013     0.6790    -7.1795 N.2     
  23 C23            3.5523     0.5844    -8.4690 C.2     
  24 N24            2.4192    -0.1168    -8.7566 N.pl3   
  25 C25            1.8414    -0.4717    -7.5638 C.ar    
  26 N26            0.7509    -1.1458    -7.2131 N.ar    
  27 C27            0.4534    -1.3278    -5.9435 C.ar    
  28 N28            1.2067    -0.8608    -4.9651 N.ar    
  29 C29            2.3170    -0.1740    -5.2186 C.ar    
  30 C30            2.6764     0.0465    -6.5597 C.ar    
  31 O31            2.5529    -0.0120     2.2173 O.2     
  32 C32            4.4229     1.1484     3.5923 C.3     
  33 H33            2.2769    -2.7002    -0.0098 H       
  34 H34            0.1862    -3.9911     0.0045 H       
  35 H35           -1.9861    -2.8386     0.0086 H       
  36 H36           -2.0864    -0.3839     0.0077 H       
  37 H37           -1.1791     2.9318    -0.0247 H       
  38 H38            6.6600     2.5307     2.9952 H       
  39 H39            7.5638     3.0849     0.7781 H       
  40 H40            6.4062     2.3644    -1.2605 H       
  41 H41            2.2944    -1.2297    -2.5138 H       
  42 H42            1.3575     0.2838    -2.5166 H       
  43 H43            4.2269     1.0001    -9.2029 H       
  44 H44            2.0830    -0.3263    -9.6420 H       
  45 H45           -0.4404    -1.8799    -5.6931 H       
  46 H46            4.7388     0.1439     3.8740 H       
  47 H47            4.7998     1.8656     4.3214 H       
  48 H48            3.3341     1.1934     3.5679 H       
@<TRIPOS>BOND
   1    1    2 1
   2    1    8 2
   3    1    9 1
   4    2    3 ar
   5    2    7 ar
   6    3    4 ar
   7    3   12 1
   8    4    5 ar
   9    4   33 1
  10    5    6 ar
  11    5   34 1
  12    6    7 ar
  13    6   35 1
  14    7   36 1
  15    9   37 1
  16   10   11 2
  17   10   19 1
  18   11   12 1
  19   11   20 1
  20   12   13 am
  21   13   14 1
  22   13   31 2
  23   14   15 ar
  24   14   19 ar
  25   15   16 ar
  26   15   32 1
  27   16   17 ar
  28   16   38 1
  29   17   18 ar
  30   17   39 1
  31   18   19 ar
  32   18   40 1
  33   20   21 1
  34   20   41 1
  35   20   42 1
  36   21   29 1
  37   22   23 2
  38   22   30 1
  39   23   24 1
  40   23   43 1
  41   24   25 1
  42   24   44 1
  43   25   26 ar
  44   25   30 ar
  45   26   27 ar
  46   27   28 ar
  47   27   45 1
  48   28   29 ar
  49   29   30 ar
  50   32   46 1
  51   32   47 1
  52   32   48 1

#	End of record

