#	Name: ASD01231401
#	Creating user name:	WinNT
#	Creation time:	15. 06. 2019 19:15

#	Modifying user name:	WinNT
#	Modification time:	15. 06. 2019 19:15

#	Program:	/corina/corina34_cracker 3.40 0067  02.08.2006

@<TRIPOS>MOLECULE
ASD01231401
  34   35    0    0    0
SMALL
NO_CHARGES


@<TRIPOS>ATOM
   1 C1            -3.3813     1.1583     1.3935 C.3     
   2 C2            -2.9375    -0.3052     1.4411 C.3     
   3 C3            -4.1609    -1.2138     1.3049 C.3     
   4 S4            -1.7864    -0.6325     0.0779 S.o2    
   5 O5            -2.4547    -0.5385    -1.1726 O.2     
   6 O6            -0.5496     0.0312     0.2994 O.2     
   7 N7            -1.4189    -2.2406     0.2246 N.am    
   8 C8             0.8203    -2.8215     1.1104 C.3     
   9 C9            -0.6920    -2.7214     1.4022 C.3     
  10 C10           -1.0661    -4.1851     1.7180 C.3     
  11 C11            0.2093    -4.8179     2.2323 C.ar    
  12 C12            0.4043    -5.9863     2.9481 C.ar    
  13 C13            1.6835    -6.3728     3.3157 C.ar    
  14 C14            2.7700    -5.5847     2.9642 C.ar    
  15 C15            2.5724    -4.4202     2.2505 C.ar    
  16 C16            1.2935    -4.0343     1.8831 C.ar    
  17 O17            1.8731    -7.5202     4.0189 O.3     
  18 H18           -4.0730     1.3550     2.2126 H       
  19 H19           -2.5098     1.8056     1.4905 H       
  20 H20           -3.8774     1.3568     0.4434 H       
  21 H21           -2.4414    -0.5037     2.3912 H       
  22 H22           -3.8374    -2.2534     1.2534 H       
  23 H23           -4.8121    -1.0783     2.1685 H       
  24 H24           -4.7048    -0.9571     0.3959 H       
  25 H25           -1.6849    -2.8641    -0.4692 H       
  26 H26            0.9910    -2.9628     0.0431 H       
  27 H27            1.3332    -1.9259     1.4609 H       
  28 H28           -0.8788    -2.0794     2.2630 H       
  29 H29           -1.8413    -4.2206     2.4834 H       
  30 H30           -1.4025    -4.6929     0.8141 H       
  31 H31           -0.4426    -6.5984     3.2213 H       
  32 H32            3.7686    -5.8819     3.2489 H       
  33 H33            3.4184    -3.8071     1.9771 H       
  34 H34            2.0093    -8.3021     3.4665 H       
@<TRIPOS>BOND
   1    1    2 1
   2    1   18 1
   3    1   19 1
   4    1   20 1
   5    2    3 1
   6    2    4 1
   7    2   21 1
   8    3   22 1
   9    3   23 1
  10    3   24 1
  11    4    5 2
  12    4    6 2
  13    4    7 am
  14    7    9 1
  15    7   25 1
  16    8    9 1
  17    8   16 1
  18    8   26 1
  19    8   27 1
  20    9   10 1
  21    9   28 1
  22   10   11 1
  23   10   29 1
  24   10   30 1
  25   11   12 ar
  26   11   16 ar
  27   12   13 ar
  28   12   31 1
  29   13   14 ar
  30   13   17 1
  31   14   15 ar
  32   14   32 1
  33   15   16 ar
  34   15   33 1
  35   17   34 1

#	End of record

