#	Name: ASD01881065
#	Creating user name:	WinNT
#	Creation time:	15. 06. 2019 19:41

#	Modifying user name:	WinNT
#	Modification time:	15. 06. 2019 19:41

#	Program:	/corina/corina34_cracker 3.40 0067  02.08.2006

@<TRIPOS>MOLECULE
ASD01881065
  40   42    0    0    0
SMALL
NO_CHARGES


@<TRIPOS>ATOM
   1 C1            -0.0169     1.3916     0.0097 C.ar    
   2 C2             0.0021    -0.0041     0.0020 C.ar    
   3 C3             1.2049    -0.6931    -0.0131 C.ar    
   4 C4             2.4005     0.0203    -0.0207 C.ar    
   5 C5             2.3727     1.4360    -0.0128 C.ar    
   6 C6             1.1473     2.1070     0.0024 C.ar    
   7 C7             3.7028    -0.6499    -0.0361 C.2     
   8 C8             4.8237     0.0887    -0.0424 C.2     
   9 N9             4.7997     1.4545    -0.0350 N.am    
  10 C10            3.6485     2.1547    -0.0207 C.2     
  11 C11            6.0704     2.1836    -0.0427 C.3     
  12 C12            6.4995     2.4451    -1.4878 C.3     
  13 C13            7.8265     3.2066    -1.4959 C.3     
  14 O14            3.6689     3.3728    -0.0152 O.2     
  15 Cl15           1.1039     3.8424     0.0121 Cl      
  16 N16           -1.1976    -0.7104     0.0101 N.3     
  17 C17           -2.3478     0.2050     0.0264 C.3     
  18 C18           -3.6427    -0.6102    -0.0255 C.3     
  19 O19           -3.6661    -1.5286     1.0705 O.3     
  20 C20           -2.5604    -2.4356     1.0853 C.3     
  21 C21           -1.2546    -1.6389     1.1485 C.3     
  22 H22           -0.9630     1.9123     0.0170 H       
  23 H23            1.2145    -1.7730    -0.0187 H       
  24 H24            3.7607    -1.7283    -0.0420 H       
  25 H25            5.7789    -0.4151    -0.0535 H       
  26 H26            5.9473     3.1336     0.4773 H       
  27 H27            6.8331     1.5898     0.4610 H       
  28 H28            6.6225     1.4951    -2.0079 H       
  29 H29            5.7367     3.0389    -1.9915 H       
  30 H30            7.7034     4.1566    -0.9759 H       
  31 H31            8.5892     2.6128    -0.9922 H       
  32 H32            8.1322     3.3929    -2.5255 H       
  33 H33           -2.3278     0.7985     0.9404 H       
  34 H34           -2.2991     0.8662    -0.8388 H       
  35 H35           -4.4985     0.0613     0.0440 H       
  36 H36           -3.6878    -1.1624    -0.9642 H       
  37 H37           -2.6335    -3.0844     1.9582 H       
  38 H38           -2.5740    -3.0409     0.1789 H       
  39 H39           -0.4078    -2.3237     1.1024 H       
  40 H40           -1.2171    -1.0749     2.0804 H       
@<TRIPOS>BOND
   1    1    2 ar
   2    1    6 ar
   3    1   22 1
   4    2    3 ar
   5    2   16 1
   6    3    4 ar
   7    3   23 1
   8    4    5 ar
   9    4    7 1
  10    5    6 ar
  11    5   10 1
  12    6   15 1
  13    7    8 2
  14    7   24 1
  15    8    9 1
  16    8   25 1
  17    9   10 am
  18    9   11 1
  19   10   14 2
  20   11   12 1
  21   11   26 1
  22   11   27 1
  23   12   13 1
  24   12   28 1
  25   12   29 1
  26   13   30 1
  27   13   31 1
  28   13   32 1
  29   16   17 1
  30   16   21 1
  31   17   18 1
  32   17   33 1
  33   17   34 1
  34   18   19 1
  35   18   35 1
  36   18   36 1
  37   19   20 1
  38   20   21 1
  39   20   37 1
  40   20   38 1
  41   21   39 1
  42   21   40 1

#	End of record

