#	Name: ASD03540016
#	Creating user name:	WinNT
#	Creation time:	15. 06. 2019 20:42

#	Modifying user name:	WinNT
#	Modification time:	15. 06. 2019 20:42

#	Program:	/corina/corina34_cracker 3.40 0067  02.08.2006

@<TRIPOS>MOLECULE
ASD03540016
  48   51    0    0    0
SMALL
NO_CHARGES


@<TRIPOS>ATOM
   1 C1            -0.0164     1.3579     0.0095 C.2     
   2 N2             0.0021    -0.0041     0.0020 N.am    
   3 C3             1.2284    -0.6238    -0.0131 C.2     
   4 C4             2.3974     0.1025    -0.0208 C.2     
   5 C5             2.3228     1.5016    -0.0130 C.2     
   6 N6             1.1082     2.0844     0.0027 N.am    
   7 S7             0.9036    -2.3626    -0.0187 S.3     
   8 C8            -1.0724    -0.8452     0.0083 C.2     
   9 C9            -0.8584    -2.1683    -0.0005 C.2     
  10 C10           -1.8701    -3.2326     0.0040 C.2     
  11 O11           -3.0529    -2.9475     0.0165 O.2     
  12 N12           -1.4886    -4.5252    -0.0058 N.am    
  13 C13           -2.4979    -5.5869    -0.0013 C.3     
  14 C14           -1.8144    -6.9299    -0.0142 C.ar    
  15 C15           -1.4896    -7.5516     1.1770 C.ar    
  16 C16           -0.8625    -8.7835     1.1652 C.ar    
  17 C17           -0.5607    -9.3939    -0.0378 C.ar    
  18 C18           -0.8863    -8.7727    -1.2290 C.ar    
  19 C19           -1.5173    -7.5428    -1.2171 C.ar    
  20 O20            3.3377     2.1787    -0.0193 O.2     
  21 O21           -1.0879     1.9319     0.0177 O.2     
  22 C22            3.7334    -0.5944    -0.0369 C.3     
  23 C23            1.0159     3.5465     0.0110 C.3     
  24 C24            0.9975     4.0406     1.4345 C.ar    
  25 C25            2.1839     4.3427     2.0767 C.ar    
  26 C26            2.1670     4.7959     3.3825 C.ar    
  27 C27            0.9639     4.9474     4.0461 C.ar    
  28 C28           -0.2225     4.6462     3.4036 C.ar    
  29 C29           -0.2059     4.1971     2.0964 C.ar    
  30 H30           -2.0780    -0.4515     0.0204 H       
  31 H31           -0.5456    -4.7524    -0.0158 H       
  32 H32           -3.1122    -5.5005     0.8949 H       
  33 H33           -3.1291    -5.4920    -0.8850 H       
  34 H34           -1.7254    -7.0747     2.1168 H       
  35 H35           -0.6081    -9.2688     2.0958 H       
  36 H36           -0.0701   -10.3560    -0.0470 H       
  37 H37           -0.6502    -9.2494    -2.1689 H       
  38 H38           -1.7750    -7.0591    -2.1478 H       
  39 H39            4.0458    -0.7575    -1.0683 H       
  40 H40            4.4721     0.0243     0.4729 H       
  41 H41            3.6489    -1.5539     0.4733 H       
  42 H42            1.8764     3.9678    -0.5088 H       
  43 H43            0.1000     3.8556    -0.4928 H       
  44 H44            3.1239     4.2243     1.5582 H       
  45 H45            3.0939     5.0312     3.8844 H       
  46 H46            0.9508     5.3008     5.0665 H       
  47 H47           -1.1625     4.7642     3.9222 H       
  48 H48           -1.1330     3.9653     1.5932 H       
@<TRIPOS>BOND
   1    1    2 am
   2    1    6 am
   3    1   21 2
   4    2    3 1
   5    2    8 1
   6    3    4 2
   7    3    7 1
   8    4    5 1
   9    4   22 1
  10    5    6 am
  11    5   20 2
  12    6   23 1
  13    7    9 1
  14    8    9 2
  15    8   30 1
  16    9   10 1
  17   10   11 2
  18   10   12 am
  19   12   13 1
  20   12   31 1
  21   13   14 1
  22   13   32 1
  23   13   33 1
  24   14   15 ar
  25   14   19 ar
  26   15   16 ar
  27   15   34 1
  28   16   17 ar
  29   16   35 1
  30   17   18 ar
  31   17   36 1
  32   18   19 ar
  33   18   37 1
  34   19   38 1
  35   22   39 1
  36   22   40 1
  37   22   41 1
  38   23   24 1
  39   23   42 1
  40   23   43 1
  41   24   25 ar
  42   24   29 ar
  43   25   26 ar
  44   25   44 1
  45   26   27 ar
  46   26   45 1
  47   27   28 ar
  48   27   46 1
  49   28   29 ar
  50   28   47 1
  51   29   48 1

#	End of record

