#	Name: ASD00842010
#	Creating user name:	WinNT
#	Creation time:	15. 06. 2019 18:43

#	Modifying user name:	WinNT
#	Modification time:	15. 06. 2019 18:43

#	Program:	/corina/corina34_cracker 3.40 0067  02.08.2006

@<TRIPOS>MOLECULE
ASD00842010
  95  100    0    0    0
SMALL
NO_CHARGES


@<TRIPOS>ATOM
   1 C1             1.0006     1.5551    -0.3869 C.ar    
   2 C2             1.3084     0.2249    -0.6315 C.ar    
   3 C3             1.2415    -0.7012     0.3996 C.ar    
   4 C4             0.8687    -0.2966     1.6666 C.ar    
   5 C5             0.5619     1.0301     1.9077 C.ar    
   6 C6             0.6282     1.9548     0.8822 C.ar    
   7 C7             1.5748    -2.1473     0.1373 C.3     
   8 C8             1.3089    -2.9851     1.3698 C.2     
   9 C9             0.7708    -2.6741    -1.0530 C.3     
  10 C10           -0.6984    -2.4457    -0.8074 C.2     
  11 N11           -1.6093    -2.9206    -1.6799 N.am    
  12 O12           -1.0611    -1.8346     0.1754 O.2     
  13 C13           -3.0360    -2.6102    -1.5157 C.3     
  14 C14           -3.8281    -3.9214    -1.5076 C.3     
  15 C15           -3.4998    -4.7189    -2.7718 C.3     
  16 C16           -2.0072    -5.0563    -2.7909 C.3     
  17 C17           -1.1939    -3.7534    -2.8168 C.3     
  18 N18           -4.2828    -5.9617    -2.7836 N.3     
  19 C19           -4.0833    -6.6980    -4.0396 C.3     
  20 C20           -4.8508    -8.0209    -3.9799 C.3     
  21 N21           -6.2768    -7.7471    -3.7541 N.3     
  22 C22           -6.4763    -7.0108    -2.4980 C.3     
  23 C23           -5.7089    -5.6880    -2.5578 C.3     
  24 C24           -7.0598    -8.9900    -3.7658 C.3     
  25 O25            0.2386    -3.1385     1.9191 O.2     
  26 N26            2.4806    -3.5274     1.7407 N.am    
  27 C27            3.0577    -2.3137    -0.1057 C.ar    
  28 C28            3.5260    -3.1561     0.8998 C.ar    
  29 C29            3.9059    -1.8130    -1.0606 C.ar    
  30 C30            5.2640    -2.1493    -1.0305 C.ar    
  31 C31            5.7419    -2.9956    -0.0227 C.ar    
  32 C32            4.8792    -3.4932     0.9303 C.ar    
  33 F33            7.0513    -3.3262     0.0151 F       
  34 C34            2.4086    -6.1752     2.4882 C.ar    
  35 C35            1.1654    -6.5634     2.0109 C.ar    
  36 C36            3.4503    -7.0824     2.5169 C.ar    
  37 C37            3.2545    -8.3759     2.0701 C.ar    
  38 C38            2.0160    -8.7654     1.5938 C.ar    
  39 C39            0.9713    -7.8623     1.5634 C.ar    
  40 H40            1.8656    -9.7764     1.2453 H       
  41 O41            0.1391    -5.6730     1.9820 O.3     
  42 C42           -1.1129    -6.1423     1.4777 C.3     
  43 C43           -8.5140    -8.6801    -3.4051 C.3     
  44 C44           -7.0026    -9.6156    -5.1609 C.3     
  45 O45            1.6745    -0.1708    -1.8790 O.3     
  46 C46            2.1539     0.2146    -4.2161 C.3     
  47 C47            1.6130     0.8113    -2.9153 C.3     
  48 S48            2.6612    -4.5245     3.0505 S.o2    
  49 O49            4.0258    -4.4366     3.4367 O.2     
  50 O50            1.5841    -4.2310     3.9298 O.2     
  51 C51            6.1577    -1.6324    -2.0229 C.1     
  52 N52            6.8666    -1.2223    -2.8101 N.1     
  53 H53            1.0563     2.2786    -1.1868 H       
  54 H54            0.8165    -1.0170     2.4695 H       
  55 H55            0.2699     1.3443     2.8989 H       
  56 H56            0.3881     2.9903     1.0730 H       
  57 H57            1.0740    -2.1476    -1.9579 H       
  58 H58            0.9574    -3.7412    -1.1737 H       
  59 H59           -3.1895    -2.0847    -0.5731 H       
  60 H60           -3.3717    -1.9856    -2.3435 H       
  61 H61           -3.5562    -4.5053    -0.6282 H       
  62 H62           -4.8954    -3.7015    -1.4830 H       
  63 H63           -3.7491    -4.1246    -3.6510 H       
  64 H64           -1.7524    -5.6296    -1.8995 H       
  65 H65           -1.7785    -5.6443    -3.6798 H       
  66 H66           -1.3805    -3.2246    -3.7514 H       
  67 H67           -0.1320    -3.9837    -2.7306 H       
  68 H68           -4.4521    -6.1010    -4.8737 H       
  69 H69           -3.0211    -6.8998    -4.1781 H       
  70 H70           -4.7278    -8.5555    -4.9218 H       
  71 H71           -4.4635    -8.6294    -3.1627 H       
  72 H72           -7.5385    -6.8090    -2.3595 H       
  73 H73           -6.1075    -7.6078    -1.6640 H       
  74 H74           -5.8319    -5.1533    -1.6159 H       
  75 H75           -6.0962    -5.0794    -3.3750 H       
  76 H76           -6.6455    -9.6873    -3.0377 H       
  77 H77            3.5265    -1.1613    -1.8337 H       
  78 H78            5.2531    -4.1458     1.7054 H       
  79 H79            4.4185    -6.7807     2.8885 H       
  80 H80            4.0702    -9.0834     2.0928 H       
  81 H81            0.0041    -8.1672     1.1920 H       
  82 H82           -0.9872    -6.4779     0.4483 H       
  83 H83           -1.4630    -6.9731     2.0904 H       
  84 H84           -1.8435    -5.3341     1.5098 H       
  85 H85           -9.0950    -9.6023    -3.4138 H       
  86 H86           -8.5547    -8.2344    -2.4112 H       
  87 H87           -8.9283    -7.9827    -4.1332 H       
  88 H88           -5.9666    -9.8363    -5.4179 H       
  89 H89           -7.5836   -10.5378    -5.1696 H       
  90 H90           -7.4170    -8.9182    -5.8891 H       
  91 H91            3.1577    -0.1752    -4.0473 H       
  92 H92            1.5006    -0.5939    -4.5442 H       
  93 H93            2.1887     0.9878    -4.9836 H       
  94 H94            0.5783     1.1218    -3.0606 H       
  95 H95            2.2154     1.6749    -2.6336 H       
@<TRIPOS>BOND
   1    1    2 ar
   2    1    6 ar
   3    1   53 1
   4    2    3 ar
   5    2   45 1
   6    3    4 ar
   7    3    7 1
   8    4    5 ar
   9    4   54 1
  10    5    6 ar
  11    5   55 1
  12    6   56 1
  13    7    8 1
  14    7    9 1
  15    7   27 1
  16    8   25 2
  17    8   26 am
  18    9   10 1
  19    9   57 1
  20    9   58 1
  21   10   11 am
  22   10   12 2
  23   11   13 1
  24   11   17 1
  25   13   14 1
  26   13   59 1
  27   13   60 1
  28   14   15 1
  29   14   61 1
  30   14   62 1
  31   15   16 1
  32   15   18 1
  33   15   63 1
  34   16   17 1
  35   16   64 1
  36   16   65 1
  37   17   66 1
  38   17   67 1
  39   18   19 1
  40   18   23 1
  41   19   20 1
  42   19   68 1
  43   19   69 1
  44   20   21 1
  45   20   70 1
  46   20   71 1
  47   21   22 1
  48   21   24 1
  49   22   23 1
  50   22   72 1
  51   22   73 1
  52   23   74 1
  53   23   75 1
  54   24   43 1
  55   24   44 1
  56   24   76 1
  57   26   48 am
  58   26   28 1
  59   27   28 ar
  60   27   29 ar
  61   28   32 ar
  62   29   30 ar
  63   29   77 1
  64   30   31 ar
  65   30   51 1
  66   31   32 ar
  67   31   33 1
  68   32   78 1
  69   34   35 ar
  70   34   36 ar
  71   34   48 1
  72   35   41 1
  73   35   39 ar
  74   36   37 ar
  75   36   79 1
  76   37   38 ar
  77   37   80 1
  78   38   39 ar
  79   38   40 1
  80   39   81 1
  81   41   42 1
  82   42   82 1
  83   42   83 1
  84   42   84 1
  85   43   85 1
  86   43   86 1
  87   43   87 1
  88   44   88 1
  89   44   89 1
  90   44   90 1
  91   45   47 1
  92   46   47 1
  93   46   91 1
  94   46   92 1
  95   46   93 1
  96   47   94 1
  97   47   95 1
  98   48   49 2
  99   48   50 2
 100   51   52 3

#	End of record

