#	Name: ASD01208064
#	Creating user name:	WinNT
#	Creation time:	15. 06. 2019 19:09

#	Modifying user name:	WinNT
#	Modification time:	15. 06. 2019 19:09

#	Program:	/corina/corina34_cracker 3.40 0067  02.08.2006

@<TRIPOS>MOLECULE
ASD01208064
  68   72    0    0    0
SMALL
NO_CHARGES


@<TRIPOS>ATOM
   1 C1             0.2795     1.0110     0.2317 C.ar    
   2 C2            -0.0459    -0.3373     0.2595 C.ar    
   3 C3            -1.3581    -0.7430     0.0592 C.ar    
   4 C4            -2.3484     0.1976    -0.1694 C.ar    
   5 C5            -2.0254     1.5553    -0.1977 C.ar    
   6 C6            -0.7056     1.9589     0.0094 C.ar    
   7 C7            -3.0787     2.5625    -0.4413 C.2     
   8 C8            -2.8942     3.9142    -0.4936 C.2     
   9 N9            -4.4058     2.2982    -0.6590 N.pl3   
  10 C10           -5.0629     3.4901    -0.8442 C.2     
  11 C11           -4.1359     4.5045    -0.7441 C.2     
  12 O12            1.5660     1.4027     0.4285 O.3     
  13 C13            1.8515     2.7942     0.2726 C.3     
  14 C14            3.3272     2.9747    -0.0885 C.3     
  15 O15            4.1412     2.5417     1.0033 O.3     
  16 C16            1.5539     3.5258     1.5831 C.3     
  17 O17           -1.6713    -2.0651     0.0871 O.3     
  18 C18           -2.0707    -2.6485    -1.0686 C.ar    
  19 C19           -2.5068    -3.9751    -1.0660 C.ar    
  20 N20           -2.0522    -1.9578    -2.2004 N.ar    
  21 C21           -2.4414    -2.5260    -3.3273 C.ar    
  22 C22           -2.8715    -3.8520    -3.3262 C.ar    
  23 N23           -2.8948    -4.5427    -2.1873 N.ar    
  24 C24           -6.5005     3.6542    -1.1071 C.2     
  25 C25            5.5449     2.6688     0.7679 C.3     
  26 N26           -7.1137     4.7932    -1.2815 N.2     
  27 C27           -8.4063     4.7450    -1.5073 C.2     
  28 C28           -8.9493     3.5235    -1.5326 C.2     
  29 S29           -7.6709     2.3447    -1.2450 S.3     
  30 C30           -3.3076    -4.4896    -4.5874 C.2     
  31 N31           -3.5728    -5.8106    -4.6181 N.am    
  32 O32           -3.4268    -3.8222    -5.5963 O.2     
  33 C33           -4.2014    -6.4272    -5.7962 C.3     
  34 C34           -3.2356    -6.6750    -3.4769 C.3     
  35 C35           -2.4363    -7.8754    -3.9948 C.3     
  36 N36           -3.1890    -8.5332    -5.0712 N.3     
  37 C37           -3.3620    -7.6379    -6.2182 C.3     
  38 C38           -2.5395    -9.7865    -5.4779 C.3     
  39 H39            0.7241    -1.0735     0.4372 H       
  40 H40           -3.3691    -0.1189    -0.3259 H       
  41 H41           -0.4514     3.0083    -0.0117 H       
  42 H42           -1.9565     4.4343    -0.3645 H       
  43 H43           -4.8124     1.4177    -0.6793 H       
  44 H44           -4.3327     5.5619    -0.8417 H       
  45 H45            1.2298     3.2058    -0.5225 H       
  46 H46            3.5600     2.3816    -0.9729 H       
  47 H47            3.5249     4.0267    -0.2942 H       
  48 H48            1.7717     4.5871     1.4642 H       
  49 H49            0.5026     3.3972     1.8403 H       
  50 H50            2.1755     3.1141     2.3782 H       
  51 H51           -2.5253    -4.5354    -0.1429 H       
  52 H52           -2.4267    -1.9635    -4.2492 H       
  53 H53            6.0932     2.3196     1.6429 H       
  54 H54            5.8238     2.0693    -0.0987 H       
  55 H55            5.7886     3.7145     0.5799 H       
  56 H56           -8.9948     5.6372    -1.6627 H       
  57 H57           -9.9914     3.2976    -1.7038 H       
  58 H58           -5.2112    -6.7515    -5.5448 H       
  59 H59           -4.2381    -5.7050    -6.6118 H       
  60 H60           -2.6342    -6.1165    -2.7597 H       
  61 H61           -4.1510    -7.0235    -2.9986 H       
  62 H62           -1.4752    -7.5338    -4.3792 H       
  63 H63           -2.2727    -8.5819    -3.1811 H       
  64 H64           -3.8748    -8.1690    -7.0201 H       
  65 H65           -2.3858    -7.3034    -6.5690 H       
  66 H66           -2.4874   -10.4624    -4.6243 H       
  67 H67           -3.1173   -10.2529    -6.2759 H       
  68 H68           -1.5319    -9.5742    -5.8353 H       
@<TRIPOS>BOND
   1    1    2 ar
   2    1   12 1
   3    1    6 ar
   4    2    3 ar
   5    2   39 1
   6    3    4 ar
   7    3   17 1
   8    4    5 ar
   9    4   40 1
  10    5    6 ar
  11    5    7 1
  12    6   41 1
  13    7    8 2
  14    7    9 1
  15    8   11 1
  16    8   42 1
  17    9   10 1
  18    9   43 1
  19   10   11 2
  20   10   24 1
  21   11   44 1
  22   12   13 1
  23   13   14 1
  24   13   16 1
  25   13   45 1
  26   14   15 1
  27   14   46 1
  28   14   47 1
  29   15   25 1
  30   16   48 1
  31   16   49 1
  32   16   50 1
  33   17   18 1
  34   18   19 ar
  35   18   20 ar
  36   19   23 ar
  37   19   51 1
  38   20   21 ar
  39   21   22 ar
  40   21   52 1
  41   22   23 ar
  42   22   30 1
  43   24   26 2
  44   24   29 1
  45   25   53 1
  46   25   54 1
  47   25   55 1
  48   26   27 1
  49   27   28 2
  50   27   56 1
  51   28   29 1
  52   28   57 1
  53   30   31 am
  54   30   32 2
  55   31   33 1
  56   31   34 1
  57   33   37 1
  58   33   58 1
  59   33   59 1
  60   34   35 1
  61   34   60 1
  62   34   61 1
  63   35   36 1
  64   35   62 1
  65   35   63 1
  66   36   37 1
  67   36   38 1
  68   37   64 1
  69   37   65 1
  70   38   66 1
  71   38   67 1
  72   38   68 1

#	End of record

