#	Name: ASD04882548
#	Creating user name:	WinNT
#	Creation time:	15. 06. 2019 20:55

#	Modifying user name:	WinNT
#	Modification time:	15. 06. 2019 20:55

#	Program:	/corina/corina34_cracker 3.40 0067  02.08.2006

@<TRIPOS>MOLECULE
ASD04882548
  87   91    0    0    0
SMALL
NO_CHARGES


@<TRIPOS>ATOM
   1 C1            -1.0201     3.0732    -4.0937 C.ar    
   2 C2            -0.6515     1.7280    -4.0045 C.ar    
   3 C3            -1.5735     0.7795    -3.5770 C.ar    
   4 C4            -2.8529     1.1615    -3.2393 C.ar    
   5 C5            -3.2280     2.5052    -3.3257 C.ar    
   6 C6            -2.3015     3.4615    -3.7508 C.ar    
   7 N7             0.6410     1.3372    -4.3449 N.3     
   8 C8             1.3189     0.7079    -3.2029 C.3     
   9 C9             0.6305     0.4387    -5.5078 C.3     
  10 C10            2.0704     0.0968    -5.8979 C.3     
  11 N11            2.7483    -0.5325    -4.7559 N.3     
  12 C12            2.7588     0.3659    -3.5930 C.3     
  13 C13           -4.5985     2.9142    -2.9640 C.2     
  14 O14           -4.9240     4.0834    -3.0395 O.2     
  15 N15           -5.4898     1.9920    -2.5498 N.am    
  16 N16           -0.0899     4.0279    -4.5247 N.am    
  17 C17            4.0447    -0.9245    -5.0973 C.ar    
  18 C18           -0.1740     5.2983    -4.0825 C.2     
  19 C19            0.8598     6.2718    -4.4479 C.2     
  20 C20            4.4137    -2.2606    -5.0096 C.ar    
  21 O21           -1.1082     5.6375    -3.3798 O.2     
  22 C22            5.6964    -2.6449    -5.3485 C.ar    
  23 C23            6.6128    -1.7011    -5.7741 C.ar    
  24 C24            6.2487    -0.3697    -5.8625 C.ar    
  25 C25            4.9663     0.0204    -5.5308 C.ar    
  26 C26            0.8962     7.5836    -4.0703 C.2     
  27 C27            2.0529     8.1362    -4.6421 C.2     
  28 C28            2.6641     7.1501    -5.3349 C.2     
  29 O29            1.9449     6.0269    -5.2113 O.3     
  30 C30            3.9465     7.2897    -6.1140 C.3     
  31 C31            3.4158    -3.2899    -4.5449 C.3     
  32 C32           -6.8508     2.3981    -2.1906 C.3     
  33 C33           -7.6404     1.1873    -1.7644 C.ar    
  34 C34           -7.6528     0.8025    -0.4370 C.ar    
  35 C35           -8.3771    -0.3083    -0.0460 C.ar    
  36 C36           -9.0892    -1.0337    -0.9825 C.ar    
  37 C37           -9.0775    -0.6483    -2.3102 C.ar    
  38 C38           -8.3569     0.4647    -2.7003 C.ar    
  39 C39           -8.3898    -0.7285     1.4012 C.3     
  40 N40           -9.5018    -0.0642     2.0942 N.3     
  41 C41          -10.7964    -0.5335     1.5826 C.3     
  42 C42          -11.8986     0.4331     2.0206 C.3     
  43 C43           -9.4081    -0.2589     3.5472 C.3     
  44 C44           -8.3171     0.6517     4.1144 C.3     
  45 H45           -1.2861    -0.2594    -3.5097 H       
  46 H46           -3.5670     0.4223    -2.9079 H       
  47 H47           -2.5884     4.5005    -3.8182 H       
  48 H48            1.3248     1.3972    -2.3586 H       
  49 H49            0.7912    -0.2043    -2.9244 H       
  50 H50            0.0950    -0.4765    -5.2554 H       
  51 H51            0.1346     0.9319    -6.3438 H       
  52 H52            2.0645    -0.5926    -6.7422 H       
  53 H53            2.5981     1.0089    -6.1764 H       
  54 H54            3.2943     1.2811    -3.8454 H       
  55 H55            3.2547    -0.1272    -2.7569 H       
  56 H56           -5.2302     1.0593    -2.4896 H       
  57 H57            0.6147     3.7747    -5.1413 H       
  58 H58            5.9840    -3.6837    -5.2805 H       
  59 H59            7.6153    -2.0041    -6.0378 H       
  60 H60            6.9670     0.3650    -6.1950 H       
  61 H61            4.6825     1.0601    -5.6005 H       
  62 H62            0.1744     8.0967    -3.4521 H       
  63 H63            2.3908     9.1575    -4.5464 H       
  64 H64            4.7927     7.0675    -5.4638 H       
  65 H65            3.9399     6.5933    -6.9525 H       
  66 H66            4.0345     8.3093    -6.4892 H       
  67 H67            2.8742    -3.6849    -5.4044 H       
  68 H68            3.9396    -4.1021    -4.0409 H       
  69 H69            2.7119    -2.8270    -3.8532 H       
  70 H70           -6.8116     3.1138    -1.3694 H       
  71 H71           -7.3315     2.8604    -3.0527 H       
  72 H72           -7.0964     1.3694     0.2948 H       
  73 H73           -9.6544    -1.9019    -0.6772 H       
  74 H74           -9.6336    -1.2153    -3.0420 H       
  75 H75           -8.3478     0.7659    -3.7375 H       
  76 H76           -8.5160    -1.8093     1.4646 H       
  77 H77           -7.4478    -0.4444     1.8703 H       
  78 H78          -10.7628    -0.5769     0.4940 H       
  79 H79          -11.0055    -1.5269     1.9796 H       
  80 H80          -11.6984     1.4226     1.6098 H       
  81 H81          -12.8614     0.0759     1.6552 H       
  82 H82          -11.9212     0.4892     3.1090 H       
  83 H83          -10.3639    -0.0120     4.0093 H       
  84 H84           -9.1598    -1.2988     3.7592 H       
  85 H85           -8.3134     0.5803     5.2020 H       
  86 H86           -7.3469     0.3412     3.7266 H       
  87 H87           -8.5138     1.6822     3.8186 H       
@<TRIPOS>BOND
   1    1    2 ar
   2    1   16 1
   3    1    6 ar
   4    2    3 ar
   5    2    7 1
   6    3    4 ar
   7    3   45 1
   8    4    5 ar
   9    4   46 1
  10    5    6 ar
  11    5   13 1
  12    6   47 1
  13    7    8 1
  14    7    9 1
  15    8   12 1
  16    8   48 1
  17    8   49 1
  18    9   10 1
  19    9   50 1
  20    9   51 1
  21   10   11 1
  22   10   52 1
  23   10   53 1
  24   11   12 1
  25   11   17 1
  26   12   54 1
  27   12   55 1
  28   13   14 2
  29   13   15 am
  30   15   32 1
  31   15   56 1
  32   16   18 am
  33   16   57 1
  34   17   20 ar
  35   17   25 ar
  36   18   19 1
  37   18   21 2
  38   19   26 2
  39   19   29 1
  40   20   22 ar
  41   20   31 1
  42   22   23 ar
  43   22   58 1
  44   23   24 ar
  45   23   59 1
  46   24   25 ar
  47   24   60 1
  48   25   61 1
  49   26   27 1
  50   26   62 1
  51   27   28 2
  52   27   63 1
  53   28   29 1
  54   28   30 1
  55   30   64 1
  56   30   65 1
  57   30   66 1
  58   31   67 1
  59   31   68 1
  60   31   69 1
  61   32   33 1
  62   32   70 1
  63   32   71 1
  64   33   34 ar
  65   33   38 ar
  66   34   35 ar
  67   34   72 1
  68   35   36 ar
  69   35   39 1
  70   36   37 ar
  71   36   73 1
  72   37   38 ar
  73   37   74 1
  74   38   75 1
  75   39   40 1
  76   39   76 1
  77   39   77 1
  78   40   41 1
  79   40   43 1
  80   41   42 1
  81   41   78 1
  82   41   79 1
  83   42   80 1
  84   42   81 1
  85   42   82 1
  86   43   44 1
  87   43   83 1
  88   43   84 1
  89   44   85 1
  90   44   86 1
  91   44   87 1

#	End of record

