#	Name: ASD02508174
#	Creating user name:	WinNT
#	Creation time:	15. 06. 2019 20:23

#	Modifying user name:	WinNT
#	Modification time:	15. 06. 2019 20:23

#	Program:	/corina/corina34_cracker 3.40 0067  02.08.2006

@<TRIPOS>MOLECULE
ASD02508174
  48   51    0    0    0
SMALL
NO_CHARGES


@<TRIPOS>ATOM
   1 C1            -0.0168     1.3911     0.0097 C.ar    
   2 C2             0.0021    -0.0041     0.0020 C.ar    
   3 C3            -1.1670    -0.7436     0.0096 C.ar    
   4 C4            -2.3892    -0.1001     0.0251 C.ar    
   5 C5            -2.4296     1.2837     0.0330 C.ar    
   6 C6            -1.2699     2.0227     0.0305 C.ar    
   7 S7            -3.8842    -1.0326     0.0343 S.o2    
   8 N8            -4.2848    -1.3010     1.6186 N.am    
   9 C9            -5.1351    -0.3489     2.3468 C.3     
  10 N10            1.2342     1.9813     0.0009 N.am    
  11 C11            2.3140     1.1938    -0.0136 C.2     
  12 S12            1.7082    -0.4709    -0.0168 S.3     
  13 O13           -4.8913    -0.1815    -0.4955 O.2     
  14 O14           -3.5687    -2.3022    -0.5204 O.2     
  15 C15            1.3727     3.4397     0.0069 C.3     
  16 O16            3.4782     1.5486    -0.0234 O.2     
  17 C17           -6.3392    -1.1063     2.9201 C.3     
  18 N18           -5.8512    -2.3012     3.6229 N.am    
  19 C19           -5.0008    -3.2533     2.8947 C.3     
  20 C20           -3.8013    -2.4988     2.3197 C.3     
  21 S21           -6.2517    -2.5697     5.2071 S.o2    
  22 C22           -7.7471    -3.5016     5.2163 C.ar    
  23 O23           -5.2450    -3.4212     5.7368 O.2     
  24 O24           -6.5668    -1.3000     5.7620 O.2     
  25 C25           -7.7011    -4.8850     5.2078 C.ar    
  26 C26           -8.8769    -5.6163     5.2150 C.ar    
  27 C27          -10.0961    -4.9655     5.2306 C.ar    
  28 C28          -10.1432    -3.5843     5.2386 C.ar    
  29 C29           -8.9686    -2.8509     5.2377 C.ar    
  30 F30           -9.0149    -1.5007     5.2461 F       
  31 F31           -6.5095    -5.5214     5.1921 F       
  32 H32           -1.1242    -1.8228     0.0030 H       
  33 H33           -3.3839     1.7892     0.0451 H       
  34 H34           -1.3241     3.1013     0.0371 H       
  35 H35           -4.5660     0.1024     3.1595 H       
  36 H36           -5.4822     0.4274     1.6648 H       
  37 H37            1.4167     3.7963     1.0360 H       
  38 H38            2.2881     3.7199    -0.5141 H       
  39 H39            0.5162     3.8881    -0.4966 H       
  40 H40           -6.8761    -0.4647     3.6188 H       
  41 H41           -7.0036    -1.4048     2.1091 H       
  42 H42           -4.6538    -4.0296     3.5766 H       
  43 H43           -5.5699    -3.7046     2.0819 H       
  44 H44           -3.2677    -3.1419     1.6199 H       
  45 H45           -3.1351    -2.2041     3.1305 H       
  46 H46           -8.8413    -6.6957     5.2080 H       
  47 H47          -11.0126    -5.5367     5.2362 H       
  48 H48          -11.0965    -3.0767     5.2501 H       
@<TRIPOS>BOND
   1    1    2 ar
   2    1   10 1
   3    1    6 ar
   4    2    3 ar
   5    2   12 1
   6    3    4 ar
   7    3   32 1
   8    4    5 ar
   9    4    7 1
  10    5    6 ar
  11    5   33 1
  12    6   34 1
  13    7    8 am
  14    7   13 2
  15    7   14 2
  16    8    9 1
  17    8   20 1
  18    9   17 1
  19    9   35 1
  20    9   36 1
  21   10   11 am
  22   10   15 1
  23   11   12 1
  24   11   16 2
  25   15   37 1
  26   15   38 1
  27   15   39 1
  28   17   18 1
  29   17   40 1
  30   17   41 1
  31   18   19 1
  32   18   21 am
  33   19   20 1
  34   19   42 1
  35   19   43 1
  36   20   44 1
  37   20   45 1
  38   21   22 1
  39   21   23 2
  40   21   24 2
  41   22   25 ar
  42   22   29 ar
  43   25   26 ar
  44   25   31 1
  45   26   27 ar
  46   26   46 1
  47   27   28 ar
  48   27   47 1
  49   28   29 ar
  50   28   48 1
  51   29   30 1

#	End of record

