#	Name: ASD08150586
#	Creating user name:	WinNT
#	Creation time:	15. 06. 2019 21:16

#	Modifying user name:	WinNT
#	Modification time:	15. 06. 2019 21:16

#	Program:	/corina/corina34_cracker 3.40 0067  02.08.2006

@<TRIPOS>MOLECULE
ASD08150586
  82   89    0    0    0
SMALL
NO_CHARGES


@<TRIPOS>ATOM
   1 N1            -0.4556     1.6432     1.1356 N.am    
   2 C2            -0.4118     0.7815     2.1702 C.2     
   3 C3             0.7413     0.0106     2.4216 C.2     
   4 C4             1.8296     0.1275     1.6189 C.2     
   5 C5             1.7871     1.0331     0.5293 C.ar    
   6 C6             2.8878     1.1919    -0.3342 C.ar    
   7 N7             2.8456     2.0277    -1.3388 N.ar    
   8 C8             1.7641     2.7755    -1.6051 C.ar    
   9 C9             0.6102     2.6805    -0.7887 C.ar    
  10 C10            0.6237     1.7856     0.3068 C.ar    
  11 C11           -0.5116     3.4646    -1.0745 C.ar    
  12 C12           -0.4820     4.3290    -2.1570 C.ar    
  13 C13            0.6635     4.4176    -2.9604 C.ar    
  14 C14            1.7623     3.6615    -2.6951 C.ar    
  15 O15           -1.3824     0.6672     2.8992 O.2     
  16 C16           -1.6678     5.1639    -2.4675 C.ar    
  17 C17           -1.6135     2.3925     0.9038 C.ar    
  18 C18           -1.6143     3.7613     1.1476 C.ar    
  19 C19           -2.7536     4.5023     0.9206 C.ar    
  20 C20           -3.9080     3.8771     0.4449 C.ar    
  21 C21           -3.9037     2.5028     0.2008 C.ar    
  22 C22           -2.7593     1.7681     0.4249 C.ar    
  23 C23           -5.1315     4.6686     0.2010 C.2     
  24 C24           -5.6609     5.5041     1.3285 C.3     
  25 C25           -5.6791     4.5977    -0.9887 C.2     
  26 C26           -6.9127     5.3631    -1.3796 C.3     
  27 N27           -7.5167     5.9518    -0.1757 N.am    
  28 C28           -6.6054     6.5842     0.7947 C.3     
  29 C29           -2.8698     4.9732    -1.7676 C.ar    
  30 C30           -8.8484     5.9174     0.0288 C.2     
  31 C31           -9.7502     5.2658    -0.9876 C.3     
  32 O32           -9.3209     6.4107     1.0309 O.2     
  33 N33          -11.1454     5.3634    -0.5383 N.3     
  34 C34          -11.3704     4.5465     0.6631 C.3     
  35 C35          -12.0728     4.9777    -1.6118 C.3     
  36 C36          -13.5128     5.1508    -1.1215 C.3     
  37 O37          -13.7040     4.3743     0.0642 O.3     
  38 C38          -12.8175     4.7240     1.1306 C.3     
  39 N39           -3.9317     5.6955    -2.0202 N.ar    
  40 C40           -3.9251     6.6503    -2.9565 C.ar    
  41 C41           -2.7489     6.9036    -3.7064 C.ar    
  42 C42           -1.5956     6.1431    -3.4478 C.ar    
  43 C43           -5.0759     7.4156    -3.2139 C.ar    
  44 C44           -5.0454     8.3817    -4.1720 C.ar    
  45 C45           -3.8883     8.6288    -4.9082 C.ar    
  46 C46           -2.7540     7.9089    -4.6883 C.ar    
  47 C47           -5.1474     1.8240    -0.3126 C.3     
  48 F48           -4.8982     0.4574    -0.4782 F       
  49 F49           -6.1879     2.0004     0.6057 F       
  50 F50           -5.5106     2.3841    -1.5421 F       
  51 H51            0.7590    -0.6751     3.2559 H       
  52 H52            2.7153    -0.4609     1.8079 H       
  53 H53            3.7834     0.6130    -0.1634 H       
  54 H54           -1.3947     3.3968    -0.4564 H       
  55 H55            0.6734     5.0951    -3.8014 H       
  56 H56            2.6363     3.7427    -3.3243 H       
  57 H57           -0.7212     4.2443     1.5155 H       
  58 H58           -2.7539     5.5654     1.1108 H       
  59 H59           -2.7541     0.7054     0.2323 H       
  60 H60           -6.2015     4.8657     2.0273 H       
  61 H61           -4.8280     5.9781     1.8478 H       
  62 H62           -5.2197     3.9562    -1.7262 H       
  63 H63           -6.6436     6.1562    -2.0772 H       
  64 H64           -7.6261     4.6877    -1.8520 H       
  65 H65           -7.1803     7.0075     1.6184 H       
  66 H66           -6.0309     7.3694     0.3034 H       
  67 H67           -2.9196     4.2122    -1.0029 H       
  68 H68           -9.6413     5.7713    -1.9471 H       
  69 H69           -9.4763     4.2164    -1.0966 H       
  70 H70          -11.1896     3.4974     0.4290 H       
  71 H71          -10.6909     4.8662     1.4531 H       
  72 H72          -11.9060     5.6121    -2.4823 H       
  73 H73          -11.9033     3.9355    -1.8822 H       
  74 H74          -13.6986     6.2022    -0.9019 H       
  75 H75          -14.2035     4.8120    -1.8937 H       
  76 H76          -13.0052     4.0765     1.9871 H       
  77 H77          -12.9831     5.7629     1.4157 H       
  78 H78           -0.6830     6.3107    -4.0006 H       
  79 H79           -5.9816     7.2371    -2.6533 H       
  80 H80           -5.9327     8.9663    -4.3651 H       
  81 H81           -3.8916     9.4010    -5.6632 H       
  82 H82           -1.8633     8.1090    -5.2654 H       
@<TRIPOS>BOND
   1    1    2 am
   2    1   10 1
   3    1   17 1
   4    2    3 1
   5    2   15 2
   6    3    4 2
   7    3   51 1
   8    4    5 1
   9    4   52 1
  10    5    6 ar
  11    5   10 ar
  12    6    7 ar
  13    6   53 1
  14    7    8 ar
  15    8    9 ar
  16    8   14 ar
  17    9   10 ar
  18    9   11 ar
  19   11   12 ar
  20   11   54 1
  21   12   13 ar
  22   12   16 1
  23   13   14 ar
  24   13   55 1
  25   14   56 1
  26   16   29 ar
  27   16   42 ar
  28   17   18 ar
  29   17   22 ar
  30   18   19 ar
  31   18   57 1
  32   19   20 ar
  33   19   58 1
  34   20   21 ar
  35   20   23 1
  36   21   22 ar
  37   21   47 1
  38   22   59 1
  39   23   24 1
  40   23   25 2
  41   24   28 1
  42   24   60 1
  43   24   61 1
  44   25   26 1
  45   25   62 1
  46   26   27 1
  47   26   63 1
  48   26   64 1
  49   27   28 1
  50   27   30 am
  51   28   65 1
  52   28   66 1
  53   29   39 ar
  54   29   67 1
  55   30   31 1
  56   30   32 2
  57   31   33 1
  58   31   68 1
  59   31   69 1
  60   33   34 1
  61   33   35 1
  62   34   38 1
  63   34   70 1
  64   34   71 1
  65   35   36 1
  66   35   72 1
  67   35   73 1
  68   36   37 1
  69   36   74 1
  70   36   75 1
  71   37   38 1
  72   38   76 1
  73   38   77 1
  74   39   40 ar
  75   40   41 ar
  76   40   43 ar
  77   41   42 ar
  78   41   46 ar
  79   42   78 1
  80   43   44 ar
  81   43   79 1
  82   44   45 ar
  83   44   80 1
  84   45   46 ar
  85   45   81 1
  86   46   82 1
  87   47   48 1
  88   47   49 1
  89   47   50 1

#	End of record

