#	Name: ASD02198494
#	Creating user name:	WinNT
#	Creation time:	15. 06. 2019 20:19

#	Modifying user name:	WinNT
#	Modification time:	15. 06. 2019 20:19

#	Program:	/corina/corina34_cracker 3.40 0067  02.08.2006

@<TRIPOS>MOLECULE
ASD02198494
  37   40    0    0    0
SMALL
NO_CHARGES


@<TRIPOS>ATOM
   1 C1             0.0653     1.0499    -0.1274 C.2     
   2 C2             0.2876    -0.2851    -0.2180 C.2     
   3 N3             1.5470    -0.7791    -0.2301 N.pl3   
   4 N4             2.5932    -0.0420    -0.1583 N.2     
   5 C5             2.5202     1.2679    -0.0668 C.2     
   6 C6             1.1921     1.9035    -0.0464 C.2     
   7 C7             1.7158    -2.1627    -0.3251 C.ar    
   8 C8             3.1076    -4.0904    -0.5773 C.ar    
   9 N9             2.0462    -4.8713    -0.5110 N.ar    
  10 C10            0.8295    -4.3830    -0.3632 C.ar    
  11 C11            0.6203    -3.0224    -0.2656 C.ar    
  12 C12            3.7473     2.0860     0.0145 C.2     
  13 N13            4.8803     1.7829     0.7161 N.pl3   
  14 N14            5.7949     2.8251     0.5202 N.2     
  15 C15            5.2498     3.7221    -0.2623 C.2     
  16 C16            3.9674     3.2954    -0.6074 C.2     
  17 C17            5.0892     0.6356     1.4920 C.ar    
  18 C18            4.0813     0.1648     2.3232 C.ar    
  19 O19            1.0677     3.1160     0.0370 O.2     
  20 C20            2.9835    -2.7189    -0.4876 C.ar    
  21 C21            6.3025    -0.0367     1.4273 C.ar    
  22 C22            6.5052    -1.1679     2.1932 C.ar    
  23 C23            5.5015    -1.6313     3.0239 C.ar    
  24 C24            4.2902    -0.9670     3.0866 C.ar    
  25 H25           -0.9383     1.4490    -0.1218 H       
  26 H26           -0.5513    -0.9623    -0.2809 H       
  27 H27            4.0865    -4.5304    -0.6982 H       
  28 H28           -0.0130    -5.0569    -0.3138 H       
  29 H29           -0.3783    -2.6293    -0.1444 H       
  30 H30            5.7173     4.6390    -0.5897 H       
  31 H31            3.2700     3.8217    -1.2422 H       
  32 H32            3.1352     0.6833     2.3729 H       
  33 H33            3.8564    -2.0853    -0.5430 H       
  34 H34            7.0867     0.3245     0.7784 H       
  35 H35            7.4486    -1.6914     2.1431 H       
  36 H36            5.6623    -2.5163     3.6216 H       
  37 H37            3.5084    -1.3312     3.7367 H       
@<TRIPOS>BOND
   1    1    2 2
   2    1    6 1
   3    1   25 1
   4    2    3 1
   5    2   26 1
   6    3    4 1
   7    3    7 1
   8    4    5 2
   9    5    6 1
  10    5   12 1
  11    6   19 2
  12    7   20 ar
  13    7   11 ar
  14    8    9 ar
  15    8   20 ar
  16    8   27 1
  17    9   10 ar
  18   10   11 ar
  19   10   28 1
  20   11   29 1
  21   12   13 1
  22   12   16 2
  23   13   14 1
  24   13   17 1
  25   14   15 2
  26   15   16 1
  27   15   30 1
  28   16   31 1
  29   17   21 ar
  30   17   18 ar
  31   18   24 ar
  32   18   32 1
  33   20   33 1
  34   21   22 ar
  35   21   34 1
  36   22   23 ar
  37   22   35 1
  38   23   24 ar
  39   23   36 1
  40   24   37 1

#	End of record

