#	Name: ASD03430872
#	Creating user name:	WinNT
#	Creation time:	15. 06. 2019 20:41

#	Modifying user name:	WinNT
#	Modification time:	15. 06. 2019 20:41

#	Program:	/corina/corina34_cracker 3.40 0067  02.08.2006

@<TRIPOS>MOLECULE
ASD03430872
  35   39    0    0    0
SMALL
NO_CHARGES


@<TRIPOS>ATOM
   1 O1            -0.0161     1.3379     0.0094 O.3     
   2 C2             0.0021    -0.0041     0.0020 C.2     
   3 N3             1.2787    -0.4357    -0.0139 N.am    
   4 C4             2.1018     0.6920    -0.0166 C.ar    
   5 C5             1.2579     1.8026    -0.0003 C.ar    
   6 C6             3.4758     0.8690    -0.0330 C.ar    
   7 C7             4.0062     2.1407    -0.0331 C.ar    
   8 C8             3.1746     3.2582    -0.0076 C.ar    
   9 C9             1.7959     3.0777     0.0038 C.ar    
  10 O10            3.9007     4.4124     0.0149 O.3     
  11 C11            5.4191     2.6582    -0.0695 C.3     
  12 C12            5.2425     4.1392    -0.4319 C.3     
  13 N13            7.2270     1.7540     0.9978 N.am    
  14 C14            6.1226     2.4861     1.2460 C.2     
  15 C15            6.2667     1.9327    -1.0718 C.ar    
  16 C16            6.1653     1.7230    -2.4286 C.ar    
  17 C17            7.1349     0.9903    -3.0907 C.ar    
  18 C18            8.2053     0.4701    -2.3868 C.ar    
  19 C19            8.3112     0.6782    -1.0270 C.ar    
  20 C20            7.3402     1.4133    -0.3522 C.ar    
  21 O21           -0.9811    -0.7197     0.0090 O.2     
  22 O22            5.7672     2.9211     2.3210 O.2     
  23 C23            1.7215    -1.8322    -0.0261 C.3     
  24 H24            4.1309     0.0105    -0.0453 H       
  25 H25            1.1416     3.9368     0.0167 H       
  26 H26            5.3297     4.2873    -1.5083 H       
  27 H27            5.9625     4.7574     0.1044 H       
  28 H28            7.8685     1.4944     1.6774 H       
  29 H29            5.3285     2.1301    -2.9766 H       
  30 H30            7.0558     0.8255    -4.1551 H       
  31 H31            8.9616    -0.1019    -2.9037 H       
  32 H32            9.1500     0.2686    -0.4838 H       
  33 H33            0.8517    -2.4892    -0.0208 H       
  34 H34            2.3119    -2.0183    -0.9232 H       
  35 H35            2.3301    -2.0281     0.8567 H       
@<TRIPOS>BOND
   1    1    2 1
   2    1    5 1
   3    2    3 am
   4    2   21 2
   5    3    4 1
   6    3   23 1
   7    4    5 ar
   8    4    6 ar
   9    5    9 ar
  10    6    7 ar
  11    6   24 1
  12    7    8 ar
  13    7   11 1
  14    8    9 ar
  15    8   10 1
  16    9   25 1
  17   10   12 1
  18   11   12 1
  19   11   14 1
  20   11   15 1
  21   12   26 1
  22   12   27 1
  23   13   14 am
  24   13   20 1
  25   13   28 1
  26   14   22 2
  27   15   16 ar
  28   15   20 ar
  29   16   17 ar
  30   16   29 1
  31   17   18 ar
  32   17   30 1
  33   18   19 ar
  34   18   31 1
  35   19   20 ar
  36   19   32 1
  37   23   33 1
  38   23   34 1
  39   23   35 1

#	End of record

