#	Name: ASD03090855
#	Creating user name:	WinNT
#	Creation time:	15. 06. 2019 20:29

#	Modifying user name:	WinNT
#	Modification time:	15. 06. 2019 20:29

#	Program:	/corina/corina34_cracker 3.40 0067  02.08.2006

@<TRIPOS>MOLECULE
ASD03090855
  43   46    0    0    0
SMALL
NO_CHARGES


@<TRIPOS>ATOM
   1 N1            -0.0174     1.3432    -0.0841 N.am    
   2 C2             0.0012    -0.0043    -0.0665 C.2     
   3 O3             1.0649    -0.5993    -0.0762 O.2     
   4 N4            -1.1464    -0.6880    -0.0384 N.2     
   5 S5             0.2595    -3.0387    -0.0299 S.3     
   6 C6            -1.1280    -2.0187    -0.0211 C.2     
   7 N7            -2.1987    -2.8518     0.0077 N.pl3   
   8 C8            -1.9391    -4.1884     0.0216 C.2     
   9 C9            -0.6634    -4.5510     0.0057 C.2     
  10 C10           -0.1141    -5.9543     0.0162 C.3     
  11 O11           -7.2696    -0.6717     0.0898 O.3     
  12 C12           -6.8892     0.6869    -0.1977 C.3     
  13 O13           -5.5236     0.7624     0.2523 O.3     
  14 C14           -5.0356    -0.5085     0.1518 C.ar    
  15 C15           -6.1092    -1.3910     0.0518 C.ar    
  16 C16           -3.7394    -0.9944     0.1373 C.ar    
  17 C17           -3.5113    -2.3592     0.0230 C.ar    
  18 C18           -4.5828    -3.2359    -0.0767 C.ar    
  19 C19           -5.8772    -2.7519    -0.0628 C.ar    
  20 F20           -6.9687     0.9393    -1.5715 F       
  21 F21           -7.6921     1.5836     0.5154 F       
  22 C22            1.2409     2.0928    -0.1149 C.3     
  23 C23            1.0129     3.4799    -0.7406 C.3     
  24 C24            1.3882     4.5170     0.3380 C.3     
  25 C25            2.3603     3.7568     1.2740 C.3     
  26 C26            1.7468     2.3353     1.3221 C.3     
  27 H27           -0.8640     1.8166    -0.0804 H       
  28 H28           -2.7344    -4.9188     0.0446 H       
  29 H29            0.9752    -5.9182    -0.0013 H       
  30 H30           -0.4461    -6.4677     0.9186 H       
  31 H31           -0.4740    -6.4919    -0.8610 H       
  32 H32           -2.9058    -0.3120     0.2144 H       
  33 H33           -4.4048    -4.2974    -0.1657 H       
  34 H34           -6.7094    -3.4359    -0.1400 H       
  35 H35            1.9886     1.5434    -0.6870 H       
  36 H36            1.6506     3.6041    -1.6159 H       
  37 H37           -0.0340     3.5954    -1.0214 H       
  38 H38            1.8865     5.3745    -0.1143 H       
  39 H39            0.5015     4.8353     0.8861 H       
  40 H40            3.3638     3.7302     0.8495 H       
  41 H41            2.3714     4.2065     2.2669 H       
  42 H42            0.9179     2.3013     2.0292 H       
  43 H43            2.5068     1.6006     1.5881 H       
@<TRIPOS>BOND
   1    1    2 am
   2    1   22 1
   3    1   27 1
   4    2    3 2
   5    2    4 1
   6    4    6 2
   7    5    6 1
   8    5    9 1
   9    6    7 1
  10    7    8 1
  11    7   17 1
  12    8    9 2
  13    8   28 1
  14    9   10 1
  15   10   29 1
  16   10   30 1
  17   10   31 1
  18   11   12 1
  19   11   15 1
  20   12   13 1
  21   12   20 1
  22   12   21 1
  23   13   14 1
  24   14   15 ar
  25   14   16 ar
  26   15   19 ar
  27   16   17 ar
  28   16   32 1
  29   17   18 ar
  30   18   19 ar
  31   18   33 1
  32   19   34 1
  33   22   23 1
  34   22   26 1
  35   22   35 1
  36   23   24 1
  37   23   36 1
  38   23   37 1
  39   24   25 1
  40   24   38 1
  41   24   39 1
  42   25   26 1
  43   25   40 1
  44   25   41 1
  45   26   42 1
  46   26   43 1

#	End of record

