#	Name: ASD03200053
#	Creating user name:	WinNT
#	Creation time:	15. 06. 2019 20:34

#	Modifying user name:	WinNT
#	Modification time:	15. 06. 2019 20:34

#	Program:	/corina/corina34_cracker 3.40 0067  02.08.2006

@<TRIPOS>MOLECULE
ASD03200053
  63   66    0    0    0
SMALL
NO_CHARGES


@<TRIPOS>ATOM
   1 C1             0.6019     0.1548     0.8909 C.3     
   2 N2             0.1160    -1.1396     0.3962 N.3     
   3 C3             0.3676    -2.2089     1.3708 C.3     
   4 C4             1.8744    -2.3491     1.5987 C.3     
   5 C5             2.4333    -1.0204     2.1151 C.3     
   6 C6             2.1157     0.0852     1.1045 C.3     
   7 C7            -1.2367    -1.0725     0.0662 C.ar    
   8 C8            -2.1986    -0.8188     1.0409 C.ar    
   9 C9            -3.5278    -0.7596     0.6741 C.ar    
  10 N10           -3.8948    -0.9394    -0.5806 N.ar    
  11 C11           -3.0181    -1.1822    -1.5369 C.ar    
  12 C12           -1.6640    -1.2525    -1.2548 C.ar    
  13 N13           -0.7371    -1.5102    -2.2738 N.am    
  14 C14           -1.0703    -2.3189    -3.2992 C.2     
  15 C15           -0.1503    -2.4894    -4.4265 C.2     
  16 O16           -2.1358    -2.9079    -3.2886 O.2     
  17 C17           -0.4325    -3.3009    -5.5033 C.2     
  18 S18            0.9283    -3.2181    -6.6193 S.3     
  19 C19            1.7564    -2.1006    -5.5410 C.2     
  20 N20            1.0270    -1.8675    -4.4979 N.2     
  21 C21            3.0880    -1.5101    -5.7928 C.ar    
  22 N22           -1.5800    -4.0482    -5.6772 N.pl3   
  23 C23            3.7811    -1.8232    -6.9587 C.ar    
  24 N24            2.1244    -3.4045     2.5894 N.3     
  25 C25            3.6527    -0.6302    -4.8624 C.ar    
  26 C26            4.8990    -0.0770    -5.0983 C.ar    
  27 C27            5.5916    -0.3887    -6.2500 C.ar    
  28 C28            5.0362    -1.2617    -7.1889 C.ar    
  29 C29            5.7805    -1.5939    -8.4212 C.2     
  30 O30            5.2965    -2.3536    -9.2376 O.2     
  31 N31            6.9962    -1.0548    -8.6403 N.am    
  32 C32            7.7342    -1.3842    -9.8621 C.3     
  33 C33            7.2825    -0.4608   -10.9954 C.3     
  34 C34            9.2331    -1.1972    -9.6187 C.3     
  35 F35            2.9799    -0.3202    -3.7326 F       
  36 H36            0.3735     0.9315     0.1611 H       
  37 H37            0.1122     0.3894     1.8360 H       
  38 H38           -0.1210    -1.9632     2.3136 H       
  39 H39           -0.0311    -3.1490     0.9895 H       
  40 H40            2.3620    -2.6083     0.6590 H       
  41 H41            1.9742    -0.7802     3.0741 H       
  42 H42            3.5133    -1.1026     2.2377 H       
  43 H43            2.6071    -0.1357     0.1570 H       
  44 H44            2.4737     1.0413     1.4865 H       
  45 H45           -1.9082    -0.6706     2.0705 H       
  46 H46           -4.2788    -0.5636     1.4252 H       
  47 H47           -3.3602    -1.3238    -2.5515 H       
  48 H48            0.1443    -1.1064    -2.2412 H       
  49 H49           -2.2777    -4.0295    -5.0036 H       
  50 H50           -1.6887    -4.5920    -6.4730 H       
  51 H51            3.3484    -2.4987    -7.6819 H       
  52 H52            3.1131    -3.5161     2.7571 H       
  53 H53            1.6307    -3.2177     3.4493 H       
  54 H54            5.3311     0.6018    -4.3779 H       
  55 H55            6.5637     0.0467    -6.4284 H       
  56 H56            7.3824    -0.4486    -7.9889 H       
  57 H57            7.5373    -2.4203   -10.1374 H       
  58 H58            7.8317    -0.7059   -11.9045 H       
  59 H59            6.2147    -0.5940   -11.1689 H       
  60 H60            7.4794     0.5753   -10.7202 H       
  61 H61            9.5549    -1.8550    -8.8113 H       
  62 H62            9.7822    -1.4423   -10.5278 H       
  63 H63            9.4300    -0.1611    -9.3434 H       
@<TRIPOS>BOND
   1    1    2 1
   2    1    6 1
   3    1   36 1
   4    1   37 1
   5    2    3 1
   6    2    7 1
   7    3    4 1
   8    3   38 1
   9    3   39 1
  10    4    5 1
  11    4   24 1
  12    4   40 1
  13    5    6 1
  14    5   41 1
  15    5   42 1
  16    6   43 1
  17    6   44 1
  18    7    8 ar
  19    7   12 ar
  20    8    9 ar
  21    8   45 1
  22    9   10 ar
  23    9   46 1
  24   10   11 ar
  25   11   12 ar
  26   11   47 1
  27   12   13 1
  28   13   14 am
  29   13   48 1
  30   14   15 1
  31   14   16 2
  32   15   17 2
  33   15   20 1
  34   17   18 1
  35   17   22 1
  36   18   19 1
  37   19   20 2
  38   19   21 1
  39   21   25 ar
  40   21   23 ar
  41   22   49 1
  42   22   50 1
  43   23   28 ar
  44   23   51 1
  45   24   52 1
  46   24   53 1
  47   25   26 ar
  48   25   35 1
  49   26   27 ar
  50   26   54 1
  51   27   28 ar
  52   27   55 1
  53   28   29 1
  54   29   30 2
  55   29   31 am
  56   31   32 1
  57   31   56 1
  58   32   33 1
  59   32   34 1
  60   32   57 1
  61   33   58 1
  62   33   59 1
  63   33   60 1
  64   34   61 1
  65   34   62 1
  66   34   63 1

#	End of record

