#	Name: ASD01903303
#	Creating user name:	WinNT
#	Creation time:	15. 06. 2019 19:54

#	Modifying user name:	WinNT
#	Modification time:	15. 06. 2019 19:54

#	Program:	/corina/corina34_cracker 3.40 0067  02.08.2006

@<TRIPOS>MOLECULE
ASD01903303
  33   36    0    0    0
SMALL
NO_CHARGES


@<TRIPOS>ATOM
   1 N1            -0.0111     0.9658     0.0074 N.pl3   
   2 H2             0.0474    -0.0024     0.0036 H       
   3 C3             1.1461     1.7306    -0.0091 C.2     
   4 C4            -1.2558     1.5876     0.0234 C.ar    
   5 N5            -1.3294     2.9058     0.1244 N.ar    
   6 C6            -2.4894     3.5345     0.1428 C.ar    
   7 C7            -3.6758     2.8341     0.0572 C.ar    
   8 C8            -3.6423     1.4499    -0.0500 C.ar    
   9 C9            -2.4115     0.8192    -0.0725 C.ar    
  10 S10            2.7860     1.0967     0.0952 S.3     
  11 C11            3.4279     2.7280     0.0021 C.2     
  12 C12            2.3791     3.5957    -0.1109 C.2     
  13 N13            1.1886     3.0234    -0.1093 N.2     
  14 C14            4.8715     3.1536     0.0493 C.3     
  15 C15            5.1075     4.4230    -0.7705 C.3     
  16 C16            4.0019     5.4180    -0.5467 C.2     
  17 C17            2.7107     5.0467    -0.2473 C.2     
  18 N18            4.0235     6.7571    -0.5874 N.pl3   
  19 N19            2.7257     7.2257    -0.3257 N.2     
  20 C20            1.9396     6.1931    -0.1233 C.2     
  21 C21           -2.5193     5.0367     0.2593 C.3     
  22 H22           -4.6205     3.3572     0.0737 H       
  23 H23           -4.5566     0.8790    -0.1181 H       
  24 H24           -2.3488    -0.2558    -0.1553 H       
  25 H25            5.1541     3.3407     1.0852 H       
  26 H26            5.4927     2.3515    -0.3491 H       
  27 H27            6.0569     4.8695    -0.4748 H       
  28 H28            5.1481     4.1642    -1.8286 H       
  29 H29            4.8016     7.3079    -0.7664 H       
  30 H30            0.8835     6.2300     0.0998 H       
  31 H31           -2.4994     5.4789    -0.7368 H       
  32 H32           -3.4295     5.3431     0.7747 H       
  33 H33           -1.6505     5.3747     0.8242 H       
@<TRIPOS>BOND
   1    1    2 1
   2    1    3 1
   3    1    4 1
   4    3   10 1
   5    3   13 2
   6    4    5 ar
   7    4    9 ar
   8    5    6 ar
   9    6    7 ar
  10    6   21 1
  11    7    8 ar
  12    7   22 1
  13    8    9 ar
  14    8   23 1
  15    9   24 1
  16   10   11 1
  17   11   12 2
  18   11   14 1
  19   12   13 1
  20   12   17 1
  21   14   15 1
  22   14   25 1
  23   14   26 1
  24   15   16 1
  25   15   27 1
  26   15   28 1
  27   16   17 2
  28   16   18 1
  29   17   20 1
  30   18   19 1
  31   18   29 1
  32   19   20 2
  33   20   30 1
  34   21   31 1
  35   21   32 1
  36   21   33 1

#	End of record

