#	Name: ASD03091265
#	Creating user name:	WinNT
#	Creation time:	15. 06. 2019 20:30

#	Modifying user name:	WinNT
#	Modification time:	15. 06. 2019 20:30

#	Program:	/corina/corina34_cracker 3.40 0067  02.08.2006

@<TRIPOS>MOLECULE
ASD03091265
  48   52    0    0    0
SMALL
NO_CHARGES


@<TRIPOS>ATOM
   1 N1             0.9848     1.0074    -0.7058 N.2     
   2 C2             1.4282    -0.1071    -1.2265 C.2     
   3 N3             2.7478    -0.3212    -1.5207 N.am    
   4 C4             3.6684     0.6405    -1.2768 C.2     
   5 C5             3.1922     1.9028    -0.6917 C.ar    
   6 C6             4.0617     2.9524    -0.4042 C.ar    
   7 C7             3.5587     4.1192     0.1465 C.ar    
   8 C8             2.1948     4.2442     0.4116 C.ar    
   9 C9             1.3308     3.2240     0.1357 C.ar    
  10 C10            1.8111     2.0344    -0.4207 C.ar    
  11 O11            4.8460     0.4670    -1.5318 O.2     
  12 C12            5.7980     4.6767     0.7535 C.3     
  13 N13            4.4229     5.1778     0.4389 N.3     
  14 C14            3.9709     5.9156     1.6431 C.3     
  15 C15            5.1735     5.8495     2.6347 C.3     
  16 N16            5.2013     4.4207     3.0804 N.3     
  17 C17            5.5708     3.6261     1.8843 C.3     
  18 C18            6.3627     5.8669     1.6087 C.3     
  19 C19            3.8925     4.0069     3.6036 C.3     
  20 C20            3.1662    -1.5989    -2.1025 C.3     
  21 C21            0.4591    -1.1865    -1.5104 C.ar    
  22 C22           -0.5595    -1.4710    -0.5995 C.ar    
  23 C23           -1.4622    -2.4811    -0.8714 C.ar    
  24 C24           -1.3567    -3.2099    -2.0456 C.ar    
  25 C25           -0.3489    -2.9313    -2.9508 C.ar    
  26 C26            0.5554    -1.9215    -2.6929 C.ar    
  27 F27           -2.4489    -2.7589     0.0086 F       
  28 H28            5.1179     2.8571    -0.6086 H       
  29 H29            1.8175     5.1604     0.8413 H       
  30 H30            0.2776     3.3354     0.3472 H       
  31 H31            6.3952     4.3476    -0.0969 H       
  32 H32            3.7455     6.9516     1.3899 H       
  33 H33            3.0956     5.4321     2.0769 H       
  34 H34            5.1875     6.5995     3.4256 H       
  35 H35            4.7604     2.9489     1.6145 H       
  36 H36            6.4871     3.0659     2.0702 H       
  37 H37            7.3171     5.6250     2.0764 H       
  38 H38            6.4090     6.7979     1.0437 H       
  39 H39            3.1791     3.9352     2.7826 H       
  40 H40            3.9860     3.0357     4.0895 H       
  41 H41            3.5412     4.7427     4.3270 H       
  42 H42            3.0726    -1.5521    -3.1875 H       
  43 H43            4.2042    -1.7972    -1.8356 H       
  44 H44            2.5329    -2.3982    -1.7174 H       
  45 H45           -0.6417    -0.9034     0.3156 H       
  46 H46           -2.0641    -3.9989    -2.2543 H       
  47 H47           -0.2720    -3.5029    -3.8640 H       
  48 H48            1.3389    -1.7027    -3.4034 H       
@<TRIPOS>BOND
   1    1    2 2
   2    1   10 1
   3    2    3 1
   4    2   21 1
   5    3    4 am
   6    3   20 1
   7    4    5 1
   8    4   11 2
   9    5    6 ar
  10    5   10 ar
  11    6    7 ar
  12    6   28 1
  13    7    8 ar
  14    7   13 1
  15    8    9 ar
  16    8   29 1
  17    9   10 ar
  18    9   30 1
  19   12   13 1
  20   12   17 1
  21   12   18 1
  22   12   31 1
  23   13   14 1
  24   14   15 1
  25   14   32 1
  26   14   33 1
  27   15   16 1
  28   15   18 1
  29   15   34 1
  30   16   17 1
  31   16   19 1
  32   17   35 1
  33   17   36 1
  34   18   37 1
  35   18   38 1
  36   19   39 1
  37   19   40 1
  38   19   41 1
  39   20   42 1
  40   20   43 1
  41   20   44 1
  42   21   22 ar
  43   21   26 ar
  44   22   23 ar
  45   22   45 1
  46   23   24 ar
  47   23   27 1
  48   24   25 ar
  49   24   46 1
  50   25   26 ar
  51   25   47 1
  52   26   48 1

#	End of record

