#	Name: ASD07300610
#	Creating user name:	WinNT
#	Creation time:	15. 06. 2019 21:10

#	Modifying user name:	WinNT
#	Modification time:	15. 06. 2019 21:10

#	Program:	/corina/corina34_cracker 3.40 0067  02.08.2006

@<TRIPOS>MOLECULE
ASD07300610
  45   48    0    0    0
SMALL
NO_CHARGES


@<TRIPOS>ATOM
   1 C1            -0.0172     1.4143     0.0098 C.2     
   2 C2             0.0021    -0.0041     0.0020 C.2     
   3 N3             1.1786     2.0887     0.0020 N.pl3   
   4 N4             1.1600    -0.6390    -0.0124 N.2     
   5 C5             2.3142     0.0272    -0.0199 C.2     
   6 C6             2.3463     1.3786    -0.0125 C.2     
   7 N7            -0.9952     2.3044     0.0292 N.2     
   8 C8            -0.4793     3.5304     0.0279 C.2     
   9 C9             0.8850     3.4257     0.0120 C.2     
  10 C10           -2.4936    -0.1033     0.0263 C.ar    
  11 C11           -1.2670    -0.7673     0.0105 C.ar    
  12 C12           -1.2556    -2.1660     0.0024 C.ar    
  13 C13           -2.4689    -2.8321     0.0105 C.ar    
  14 C14           -3.6425    -2.1007     0.0261 C.ar    
  15 N15           -3.6224    -0.7815     0.0338 N.ar    
  16 C16           -1.2642     4.8167     0.0465 C.3     
  17 C17            2.9695     4.5143     0.8496 C.ar    
  18 C18            1.8546     4.5409     0.0095 C.ar    
  19 C19            1.6711     5.6418    -0.8355 C.ar    
  20 C20            2.6082     6.6594    -0.7997 C.ar    
  21 C21            3.6858     6.5576     0.0614 C.ar    
  22 N22            3.8335     5.5079     0.8469 N.ar    
  23 C23            4.7083     7.6640     0.1030 C.3     
  24 C24            4.8546     8.1694     1.5397 C.3     
  25 O25            5.8241     9.2185     1.5791 O.3     
  26 C26            6.0378     9.7637     2.8826 C.3     
  27 H27            3.2429    -0.5238    -0.0314 H       
  28 H28            3.2938     1.8968    -0.0190 H       
  29 H29           -2.5178     0.9764     0.0372 H       
  30 H30           -0.3240    -2.7122    -0.0101 H       
  31 H31           -2.4988    -3.9117     0.0043 H       
  32 H32           -4.5907    -2.6176     0.0324 H       
  33 H33           -1.4376     5.1216     1.0785 H       
  34 H34           -0.7017     5.5931    -0.4721 H       
  35 H35           -2.2209     4.6658    -0.4534 H       
  36 H36            3.1221     3.6738     1.5104 H       
  37 H37            0.8203     5.6954    -1.4986 H       
  38 H38            2.4995     7.5240    -1.4377 H       
  39 H39            5.6680     7.2852    -0.2485 H       
  40 H40            4.3838     8.4829    -0.5390 H       
  41 H41            3.8949     8.5482     1.8911 H       
  42 H42            5.1791     7.3505     2.1816 H       
  43 H43            5.1026    10.1756     3.2619 H       
  44 H44            6.3868     8.9779     3.5524 H       
  45 H45            6.7869    10.5536     2.8277 H       
@<TRIPOS>BOND
   1    1    2 1
   2    1    3 1
   3    1    7 2
   4    2    4 2
   5    2   11 1
   6    3    6 1
   7    3    9 1
   8    4    5 1
   9    5    6 2
  10    5   27 1
  11    6   28 1
  12    7    8 1
  13    8    9 2
  14    8   16 1
  15    9   18 1
  16   10   11 ar
  17   10   15 ar
  18   10   29 1
  19   11   12 ar
  20   12   13 ar
  21   12   30 1
  22   13   14 ar
  23   13   31 1
  24   14   15 ar
  25   14   32 1
  26   16   33 1
  27   16   34 1
  28   16   35 1
  29   17   18 ar
  30   17   22 ar
  31   17   36 1
  32   18   19 ar
  33   19   20 ar
  34   19   37 1
  35   20   21 ar
  36   20   38 1
  37   21   22 ar
  38   21   23 1
  39   23   24 1
  40   23   39 1
  41   23   40 1
  42   24   25 1
  43   24   41 1
  44   24   42 1
  45   25   26 1
  46   26   43 1
  47   26   44 1
  48   26   45 1

#	End of record

