#	Name: ASD02408156
#	Creating user name:	WinNT
#	Creation time:	15. 06. 2019 20:21

#	Modifying user name:	WinNT
#	Modification time:	15. 06. 2019 20:21

#	Program:	/corina/corina34_cracker 3.40 0067  02.08.2006

@<TRIPOS>MOLECULE
ASD02408156
  50   53    0    0    0
SMALL
NO_CHARGES


@<TRIPOS>ATOM
   1 O1            -0.0748     2.3796    -0.4084 O.3     
   2 C2             0.2126     1.0665    -0.2088 C.ar    
   3 C3             1.5304     0.6338    -0.2227 C.ar    
   4 C4            -0.8113     0.1572     0.0151 C.ar    
   5 C5            -0.5166    -1.1768     0.2182 C.ar    
   6 C6             0.7977    -1.6065     0.1986 C.ar    
   7 C7             1.8200    -0.7017    -0.0190 C.ar    
   8 C8            -2.2438     0.6249     0.0371 C.3     
   9 C9            -2.7812     0.6636    -1.3703 C.2     
  10 N10           -4.0537     1.0577    -1.5707 N.am    
  11 N11           -1.9966     0.3191    -2.3550 N.2     
  12 C12           -2.4196     0.3346    -3.6255 C.2     
  13 C13           -3.7378     0.7305    -3.9060 C.2     
  14 C14           -4.5675     1.1047    -2.8179 C.2     
  15 N15           -1.5736    -0.0321    -4.6432 N.pl3   
  16 C16           -1.5680     0.7048    -5.9144 C.3     
  17 O17           -5.7195     1.4564    -3.0045 O.2     
  18 C18            1.0297     3.2596    -0.6268 C.3     
  19 C19           -0.1352     1.1544    -6.2174 C.3     
  20 C20            0.7942    -0.0604    -6.1866 C.3     
  21 C21            0.7679    -0.7014    -4.7977 C.3     
  22 C22           -0.6525    -1.1650    -4.4795 C.3     
  23 O23            0.3704    -1.0165    -7.1663 O.3     
  24 C24            1.4679    -1.2059    -8.0824 C.3     
  25 C25            2.6949    -0.7362    -7.2615 C.3     
  26 O26            2.1347     0.3565    -6.4941 O.3     
  27 C27           -4.2281     0.7605    -5.2511 C.1     
  28 N28           -4.6170     0.7844    -6.3182 N.1     
  29 H29            2.3294     1.3402    -0.3930 H       
  30 H30           -1.3131    -1.8849     0.3929 H       
  31 H31            1.0262    -2.6500     0.3577 H       
  32 H32            2.8457    -1.0397    -0.0338 H       
  33 H33           -2.8413    -0.0629     0.6354 H       
  34 H34           -2.2935     1.6228     0.4726 H       
  35 H35           -4.6048     1.3093    -0.8132 H       
  36 H36           -1.9243     0.0559    -6.7144 H       
  37 H37           -2.2156     1.5778    -5.8335 H       
  38 H38            1.5778     2.9416    -1.5137 H       
  39 H39            0.6619     4.2754    -0.7718 H       
  40 H40            1.6920     3.2330     0.2385 H       
  41 H41           -0.0996     1.6147    -7.2049 H       
  42 H42            0.1857     1.8770    -5.4671 H       
  43 H43            1.4438    -1.5564    -4.7788 H       
  44 H44            1.0846     0.0296    -4.0536 H       
  45 H45           -0.6969    -1.5282    -3.4528 H       
  46 H46           -0.9383    -1.9633    -5.1644 H       
  47 H47            1.5658    -2.2569    -8.3543 H       
  48 H48            1.3392    -0.5875    -8.9708 H       
  49 H49            3.0529    -1.5301    -6.6060 H       
  50 H50            3.4916    -0.3845    -7.9170 H       
@<TRIPOS>BOND
   1    1    2 1
   2    1   18 1
   3    2    3 ar
   4    2    4 ar
   5    3    7 ar
   6    3   29 1
   7    4    5 ar
   8    4    8 1
   9    5    6 ar
  10    5   30 1
  11    6    7 ar
  12    6   31 1
  13    7   32 1
  14    8    9 1
  15    8   33 1
  16    8   34 1
  17    9   10 1
  18    9   11 2
  19   10   14 am
  20   10   35 1
  21   11   12 1
  22   12   13 2
  23   12   15 1
  24   13   14 1
  25   13   27 1
  26   14   17 2
  27   15   16 1
  28   15   22 1
  29   16   19 1
  30   16   36 1
  31   16   37 1
  32   18   38 1
  33   18   39 1
  34   18   40 1
  35   19   20 1
  36   19   41 1
  37   19   42 1
  38   20   21 1
  39   20   23 1
  40   20   26 1
  41   21   22 1
  42   21   43 1
  43   21   44 1
  44   22   45 1
  45   22   46 1
  46   23   24 1
  47   24   25 1
  48   24   47 1
  49   24   48 1
  50   25   26 1
  51   25   49 1
  52   25   50 1
  53   27   28 3

#	End of record

