#	Name: ASD03180030
#	Creating user name:	WinNT
#	Creation time:	15. 06. 2019 20:33

#	Modifying user name:	WinNT
#	Modification time:	15. 06. 2019 20:33

#	Program:	/corina/corina34_cracker 3.40 0067  02.08.2006

@<TRIPOS>MOLECULE
ASD03180030
  50   52    0    0    0
SMALL
NO_CHARGES


@<TRIPOS>ATOM
   1 C1             7.4490     3.6197     1.7834 C.ar    
   2 C2             7.2104     4.9588     2.0303 C.ar    
   3 C3             6.0036     5.5248     1.6643 C.ar    
   4 C4             5.0354     4.7518     1.0510 C.ar    
   5 C5             5.2743     3.4130     0.8033 C.ar    
   6 C6             6.4806     2.8467     1.1706 C.ar    
   7 S7             4.0398     2.4275     0.0226 S.o2    
   8 O8             2.7883     3.0083     0.3629 O.2     
   9 N9             4.2173     2.6236    -1.6121 N.am    
  10 O10            4.3703     1.0742     0.3027 O.2     
  11 C11            3.4137     3.6221    -2.3216 C.3     
  12 C12            5.1780     1.7986    -2.3488 C.3     
  13 C13            4.4574     0.6420    -2.9922 C.ar    
  14 C14            4.1985     4.9026    -2.4458 C.2     
  15 N15            3.6555     5.9683    -3.0669 N.am    
  16 C16            4.4184     7.1236    -3.2698 C.ar    
  17 O17            5.3189     4.9741    -1.9868 O.2     
  18 C18            4.0068     0.7472    -4.2948 C.ar    
  19 C19            3.3458    -0.3133    -4.8855 C.ar    
  20 C20            3.1353    -1.4803    -4.1727 C.ar    
  21 C21            3.5865    -1.5849    -2.8690 C.ar    
  22 C22            4.2523    -0.5258    -2.2814 C.ar    
  23 C23            5.3511     7.5175    -2.3190 C.ar    
  24 C24            6.1028     8.6579    -2.5224 C.ar    
  25 C25            5.9273     9.4079    -3.6711 C.ar    
  26 C26            4.9996     9.0184    -4.6195 C.ar    
  27 C27            4.2487     7.8755    -4.4247 C.ar    
  28 Cl28           2.3047    -2.8125    -4.9137 Cl      
  29 C29            4.8117     9.8386    -5.8698 C.3     
  30 H30            8.3936     3.1786     2.0653 H       
  31 H31            7.9669     5.5626     2.5094 H       
  32 H32            5.8169     6.5708     1.8578 H       
  33 H33            4.0922     5.1939     0.7657 H       
  34 H34            6.6671     1.8006     0.9774 H       
  35 H35            3.1663     3.2497    -3.3157 H       
  36 H36            2.4954     3.8113    -1.7656 H       
  37 H37            5.6586     2.4013    -3.1194 H       
  38 H38            5.9334     1.4188    -1.6608 H       
  39 H39            2.7358     5.9344    -3.3734 H       
  40 H40            4.1709     1.6583    -4.8510 H       
  41 H41            2.9935    -0.2309    -5.9030 H       
  42 H42            3.4224    -2.4956    -2.3122 H       
  43 H43            4.6085    -0.6090    -1.2652 H       
  44 H44            5.4881     6.9327    -1.4214 H       
  45 H45            6.8282     8.9648    -1.7834 H       
  46 H46            6.5159    10.2998    -3.8275 H       
  47 H47            3.5271     7.5696    -5.1678 H       
  48 H48            5.4864     9.4775    -6.6460 H       
  49 H49            3.7811     9.7471    -6.2128 H       
  50 H50            5.0317    10.8843    -5.6548 H       
@<TRIPOS>BOND
   1    1    2 ar
   2    1    6 ar
   3    1   30 1
   4    2    3 ar
   5    2   31 1
   6    3    4 ar
   7    3   32 1
   8    4    5 ar
   9    4   33 1
  10    5    6 ar
  11    5    7 1
  12    6   34 1
  13    7    8 2
  14    7    9 am
  15    7   10 2
  16    9   11 1
  17    9   12 1
  18   11   14 1
  19   11   35 1
  20   11   36 1
  21   12   13 1
  22   12   37 1
  23   12   38 1
  24   13   18 ar
  25   13   22 ar
  26   14   15 am
  27   14   17 2
  28   15   16 1
  29   15   39 1
  30   16   23 ar
  31   16   27 ar
  32   18   19 ar
  33   18   40 1
  34   19   20 ar
  35   19   41 1
  36   20   21 ar
  37   20   28 1
  38   21   22 ar
  39   21   42 1
  40   22   43 1
  41   23   24 ar
  42   23   44 1
  43   24   25 ar
  44   24   45 1
  45   25   26 ar
  46   25   46 1
  47   26   27 ar
  48   26   29 1
  49   27   47 1
  50   29   48 1
  51   29   49 1
  52   29   50 1

#	End of record

