#	Name: ASD04230164
#	Creating user name:	WinNT
#	Creation time:	15. 06. 2019 20:48

#	Modifying user name:	WinNT
#	Modification time:	15. 06. 2019 20:48

#	Program:	/corina/corina34_cracker 3.40 0067  02.08.2006

@<TRIPOS>MOLECULE
ASD04230164
  45   49    0    0    0
SMALL
NO_CHARGES


@<TRIPOS>ATOM
   1 C1             0.0270     1.3119    -1.0839 C.ar    
   2 C2             0.1631     0.0709    -1.6917 C.ar    
   3 C3             1.3754    -0.5544    -1.7289 C.ar    
   4 C4             2.4965     0.0593    -1.1494 C.ar    
   5 C5             2.3610     1.3184    -0.5327 C.ar    
   6 C6             1.1127     1.9348    -0.5078 C.ar    
   7 C7             3.7583    -0.5815    -1.1824 C.2     
   8 C8             4.8462     0.0460    -0.6031 C.2     
   9 C9             4.6639     1.3570     0.0293 C.2     
  10 N10            3.4498     1.9383     0.0429 N.am    
  11 C11            6.1718    -0.5947    -0.6204 C.2     
  12 N12            7.2495     0.0742    -0.1648 N.am    
  13 O13            6.2942    -1.7275    -1.0459 O.2     
  14 C14            8.4865    -0.5720    -0.0737 C.ar    
  15 C15            8.5424    -1.9263     0.2317 C.ar    
  16 C16            9.7630    -2.5683     0.3221 C.ar    
  17 C17           10.9334    -1.8677     0.1100 C.ar    
  18 C18           10.8869    -0.5087    -0.1970 C.ar    
  19 C19            9.6578     0.1376    -0.2939 C.ar    
  20 C20           12.1443     0.2459    -0.4254 C.2     
  21 C21           13.3983    -0.2851    -0.4600 C.2     
  22 N22           14.2644     0.7458    -0.6942 N.pl3   
  23 C23           13.5153     1.8899    -0.7979 C.2     
  24 N24           12.2402     1.5677    -0.6389 N.2     
  25 C25           15.6226     0.7948    -0.8253 C.2     
  26 C26           16.2490     1.9670    -1.0584 C.2     
  27 C27           15.5093     3.1561    -1.1698 C.2     
  28 C28           14.1557     3.1222    -1.0423 C.2     
  29 O29            5.6130     1.9207     0.5435 O.2     
  30 H30           -0.9384     1.7957    -1.0663 H       
  31 H31           -0.6981    -0.4037    -2.1385 H       
  32 H32            1.4719    -1.5198    -2.2032 H       
  33 H33            0.9958     2.9004    -0.0383 H       
  34 H34            3.8698    -1.5471    -1.6531 H       
  35 H35            3.3394     2.8055     0.4633 H       
  36 H36            7.1672     1.0038     0.0999 H       
  37 H37            7.6296    -2.4787     0.3993 H       
  38 H38            9.8013    -3.6211     0.5598 H       
  39 H39           11.8854    -2.3725     0.1821 H       
  40 H40            9.6167     1.1903    -0.5315 H       
  41 H41           13.6589    -1.3248    -0.3274 H       
  42 H42           16.2011    -0.1133    -0.7411 H       
  43 H43           17.3240     1.9912    -1.1596 H       
  44 H44           16.0133     4.0929    -1.3566 H       
  45 H45           13.5771     4.0302    -1.1265 H       
@<TRIPOS>BOND
   1    1    2 ar
   2    1    6 ar
   3    1   30 1
   4    2    3 ar
   5    2   31 1
   6    3    4 ar
   7    3   32 1
   8    4    5 ar
   9    4    7 1
  10    5    6 ar
  11    5   10 1
  12    6   33 1
  13    7    8 2
  14    7   34 1
  15    8    9 1
  16    8   11 1
  17    9   10 am
  18    9   29 2
  19   10   35 1
  20   11   12 am
  21   11   13 2
  22   12   14 1
  23   12   36 1
  24   14   15 ar
  25   14   19 ar
  26   15   16 ar
  27   15   37 1
  28   16   17 ar
  29   16   38 1
  30   17   18 ar
  31   17   39 1
  32   18   19 ar
  33   18   20 1
  34   19   40 1
  35   20   21 2
  36   20   24 1
  37   21   22 1
  38   21   41 1
  39   22   23 1
  40   22   25 1
  41   23   24 2
  42   23   28 1
  43   25   26 2
  44   25   42 1
  45   26   27 1
  46   26   43 1
  47   27   28 2
  48   27   44 1
  49   28   45 1

#	End of record

