#	Name: ASD01881232
#	Creating user name:	WinNT
#	Creation time:	15. 06. 2019 19:42

#	Modifying user name:	WinNT
#	Modification time:	15. 06. 2019 19:42

#	Program:	/corina/corina34_cracker 3.40 0067  02.08.2006

@<TRIPOS>MOLECULE
ASD01881232
  55   58    0    0    0
SMALL
NO_CHARGES


@<TRIPOS>ATOM
   1 N1            -0.0158     1.3134     0.0093 N.ar    
   2 C2             0.0021    -0.0041     0.0020 C.ar    
   3 N3             1.1313    -0.6835    -0.0124 N.ar    
   4 C4             2.3010    -0.0550    -0.0202 C.ar    
   5 C5             2.3188     1.3391    -0.0129 C.ar    
   6 C6             1.1111     2.0106     0.0022 C.ar    
   7 C7             3.6226     2.0948    -0.0208 C.3     
   8 O8             4.0223     2.3409    -1.3705 O.3     
   9 C9             5.1847     3.0166    -1.5553 C.ar    
  10 C10            5.6323     3.2898    -2.8447 C.ar    
  11 C11            6.8075     3.9735    -3.0314 C.ar    
  12 C12            7.5614     4.3992    -1.9323 C.ar    
  13 C13            7.1075     4.1223    -0.6383 C.ar    
  14 C14            5.9232     3.4396    -0.4575 C.ar    
  15 C15            7.5574     4.4219    -4.2610 C.3     
  16 N16            8.7582     5.1137    -3.7787 N.am    
  17 C17            8.7561     5.0980    -2.4347 C.2     
  18 O18            9.6182     5.5913    -1.7333 O.2     
  19 C19           -1.3047    -0.7547     0.0110 C.3     
  20 Cl20           8.0303     4.6425     0.7370 Cl      
  21 C21            1.0761     3.5172     0.0102 C.3     
  22 C22            1.0506     4.0265    -1.4079 C.ar    
  23 C23           -0.1579     4.2323    -2.0468 C.ar    
  24 C24           -0.1813     4.6994    -3.3476 C.ar    
  25 C25            1.0038     4.9613    -4.0094 C.ar    
  26 C26            2.2122     4.7565    -3.3702 C.ar    
  27 C27            2.2355     4.2934    -2.0679 C.ar    
  28 C28            9.4242     7.1810    -4.9030 C.3     
  29 C29            9.7895     5.7219    -4.6230 C.3     
  30 O30            3.4596    -0.7578    -0.0346 O.3     
  31 C31            3.3540    -2.1828    -0.0408 C.3     
  32 H32            3.4953     3.0442     0.4993 H       
  33 H33            4.3879     1.5043     0.4829 H       
  34 H34            5.0554     2.9637    -3.6975 H       
  35 H35            5.5724     3.2261     0.5414 H       
  36 H36            7.8390     3.5586    -4.8639 H       
  37 H37            6.9419     5.1043    -4.8472 H       
  38 H38           -1.6299    -0.9301    -1.0145 H       
  39 H39           -1.1714    -1.7101     0.5184 H       
  40 H40           -2.0578    -0.1667     0.5355 H       
  41 H41            0.1829     3.8571     0.5344 H       
  42 H42            1.9623     3.8986     0.5173 H       
  43 H43           -1.0838     4.0276    -1.5298 H       
  44 H44           -1.1254     4.8595    -3.8470 H       
  45 H45            0.9855     5.3256    -5.0259 H       
  46 H46            3.1381     4.9608    -3.8873 H       
  47 H47            3.1797     4.1334    -1.5685 H       
  48 H48            9.3576     7.7260    -3.9614 H       
  49 H49           10.1915     7.6335    -5.5312 H       
  50 H50            8.4634     7.2230    -5.4159 H       
  51 H51           10.7503     5.6798    -4.1101 H       
  52 H52            9.8561     5.1768    -5.5646 H       
  53 H53            4.3519    -2.6211    -0.0523 H       
  54 H54            2.8230    -2.5117     0.8526 H       
  55 H55            2.8064    -2.5027    -0.9273 H       
@<TRIPOS>BOND
   1    1    2 ar
   2    1    6 ar
   3    2    3 ar
   4    2   19 1
   5    3    4 ar
   6    4    5 ar
   7    4   30 1
   8    5    6 ar
   9    5    7 1
  10    6   21 1
  11    7    8 1
  12    7   32 1
  13    7   33 1
  14    8    9 1
  15    9   10 ar
  16    9   14 ar
  17   10   11 ar
  18   10   34 1
  19   11   12 ar
  20   11   15 1
  21   12   13 ar
  22   12   17 1
  23   13   14 ar
  24   13   20 1
  25   14   35 1
  26   15   16 1
  27   15   36 1
  28   15   37 1
  29   16   17 am
  30   16   29 1
  31   17   18 2
  32   19   38 1
  33   19   39 1
  34   19   40 1
  35   21   22 1
  36   21   41 1
  37   21   42 1
  38   22   23 ar
  39   22   27 ar
  40   23   24 ar
  41   23   43 1
  42   24   25 ar
  43   24   44 1
  44   25   26 ar
  45   25   45 1
  46   26   27 ar
  47   26   46 1
  48   27   47 1
  49   28   29 1
  50   28   48 1
  51   28   49 1
  52   28   50 1
  53   29   51 1
  54   29   52 1
  55   30   31 1
  56   31   53 1
  57   31   54 1
  58   31   55 1

#	End of record

