#	Name: ASD00170350
#	Creating user name:	WinNT
#	Creation time:	15. 06. 2019 18:32

#	Modifying user name:	WinNT
#	Modification time:	15. 06. 2019 18:32

#	Program:	/corina/corina34_cracker 3.40 0067  02.08.2006

@<TRIPOS>MOLECULE
ASD00170350
  38   38    0    0    0
SMALL
NO_CHARGES


@<TRIPOS>ATOM
   1 C1             0.7804     0.9760    -0.8138 C.ar    
   2 C2             1.4987     0.0433    -0.0571 C.ar    
   3 N3             1.1097    -1.2246    -0.0193 N.ar    
   4 C4             0.0371    -1.6086    -0.7005 C.ar    
   5 C5            -0.6809    -0.6706    -1.4583 C.ar    
   6 N6            -0.2863     0.6014    -1.4868 N.ar    
   7 C7            -1.8751    -1.0918    -2.2185 C.2     
   8 N8            -2.6248    -0.1771    -2.8503 N.2     
   9 C9            -3.9093    -0.0550    -2.5543 C.2     
  10 N10           -4.4456    -0.7815    -1.5319 N.pl3   
  11 N11           -0.3717    -2.9302    -0.6640 N.pl3   
  12 N12            2.6179     0.4443     0.6532 N.3     
  13 Cl13           1.2941     2.6337    -0.8588 Cl      
  14 O14           -2.1791    -2.2708    -2.2714 O.2     
  15 N15           -4.6966     0.7972    -3.2717 N.pl3   
  16 C16            2.2471     1.3343     1.7615 C.3     
  17 C17            3.3757    -0.7159     1.1406 C.3     
  18 C18            4.7762    -0.2689     1.5644 C.3     
  19 C19            5.5145    -1.4451     2.2065 C.3     
  20 C20            5.5520     0.2108     0.3360 C.3     
  21 H21           -3.9004    -1.4301    -1.0597 H       
  22 H22           -5.3722    -0.6495    -1.2770 H       
  23 H23            0.2368    -3.6176    -0.3507 H       
  24 H24           -1.2667    -3.1692    -0.9517 H       
  25 H25           -4.3152     1.3138    -3.9987 H       
  26 H26           -5.6378     0.8866    -3.0547 H       
  27 H27            1.7126     0.7646     2.5217 H       
  28 H28            3.1479     1.7662     2.1976 H       
  29 H29            1.6058     2.1324     1.3876 H       
  30 H30            2.8600    -1.1538     1.9953 H       
  31 H31            3.4560    -1.4575     0.3458 H       
  32 H32            4.6954     0.5458     2.2840 H       
  33 H33            5.6694    -2.2266     1.4627 H       
  34 H34            6.4794    -1.1062     2.5837 H       
  35 H35            4.9208    -1.8405     3.0307 H       
  36 H36            5.0260     1.0488    -0.1215 H       
  37 H37            6.5497     0.5293     0.6379 H       
  38 H38            5.6329    -0.6039    -0.3836 H       
@<TRIPOS>BOND
   1    1    2 ar
   2    1   13 1
   3    1    6 ar
   4    2    3 ar
   5    2   12 1
   6    3    4 ar
   7    4    5 ar
   8    4   11 1
   9    5    6 ar
  10    5    7 1
  11    7    8 1
  12    7   14 2
  13    8    9 2
  14    9   10 1
  15    9   15 1
  16   10   21 1
  17   10   22 1
  18   11   23 1
  19   11   24 1
  20   12   16 1
  21   12   17 1
  22   15   25 1
  23   15   26 1
  24   16   27 1
  25   16   28 1
  26   16   29 1
  27   17   18 1
  28   17   30 1
  29   17   31 1
  30   18   19 1
  31   18   20 1
  32   18   32 1
  33   19   33 1
  34   19   34 1
  35   19   35 1
  36   20   36 1
  37   20   37 1
  38   20   38 1

#	End of record

