#	Name: ASD01870072
#	Creating user name:	WinNT
#	Creation time:	15. 06. 2019 19:38

#	Modifying user name:	WinNT
#	Modification time:	15. 06. 2019 19:38

#	Program:	/corina/corina34_cracker 3.40 0067  02.08.2006

@<TRIPOS>MOLECULE
ASD01870072
  50   53    0    0    0
SMALL
NO_CHARGES


@<TRIPOS>ATOM
   1 C1             0.6167     1.1319    -0.1249 C.ar    
   2 C2             1.0081    -0.1959    -0.0544 C.ar    
   3 N3             2.2539    -0.5228     0.1986 N.ar    
   4 C4             3.2045     0.3962     0.4002 C.ar    
   5 C5             2.8869     1.7510     0.3450 C.ar    
   6 C6             1.5527     2.1234     0.0742 C.ar    
   7 S7             4.9139     0.1839     0.7497 S.3     
   8 C8             5.2044     1.9128     0.8221 C.2     
   9 C9             4.0448     2.6187     0.5892 C.2     
  10 C10            6.4044     2.6340     1.0734 C.2     
  11 N11            6.3628     3.9812     1.0744 N.am    
  12 C12            5.1908     4.6239     0.8385 C.2     
  13 N13            4.0889     3.9788     0.6083 N.2     
  14 N14            1.1880     3.4714     0.0098 N.4     
  15 C15            7.5822     4.7517     1.3305 C.3     
  16 O16            7.4511     2.0446     1.2844 O.2     
  17 C17           -0.2485     3.5767    -0.2792 C.3     
  18 C18            1.4774     4.1190     1.2962 C.3     
  19 C19            1.9517     4.1350    -1.0553 C.3     
  20 C20            7.8591     5.5935     0.1759 C.3     
  21 C21            9.1680     6.3943     0.3326 C.3     
  22 C22            8.8940     7.5930     1.2000 C.3     
  23 C23            9.2123     7.3314     2.6845 C.3     
  24 C24            8.7501     5.9402     3.1585 C.3     
  25 C25            7.3930     5.5712     2.6235 C.3     
  26 H26           -0.4108     1.3870    -0.3383 H       
  27 H27            0.2758    -0.9743    -0.2099 H       
  28 H28            5.1749     5.7038     0.8429 H       
  29 H29            8.4131     4.0604     1.4708 H       
  30 H30           -0.8151     3.0843     0.5111 H       
  31 H31           -0.5329     4.6278    -0.3294 H       
  32 H32           -0.4632     3.0962    -1.2337 H       
  33 H33            2.4986     3.8866     1.5984 H       
  34 H34            1.3658     5.1983     1.1928 H       
  35 H35            0.7826     3.7527     2.0519 H       
  36 H36            1.6095     3.7754    -2.0257 H       
  37 H37            1.8007     5.2127    -0.9932 H       
  38 H38            3.0114     3.9091    -0.9372 H       
  39 H39            7.9347     4.9633    -0.7102 H       
  40 H40            7.0325     6.2910     0.0413 H       
  41 H41            9.9264     5.7680     0.8023 H       
  42 H42            9.5156     6.7228    -0.6469 H       
  43 H43            9.5021     8.4274     0.8506 H       
  44 H44            7.8420     7.8625     1.1070 H       
  45 H45           10.2890     7.4135     2.8330 H       
  46 H46            8.7173     8.0912     3.2893 H       
  47 H47            9.4742     5.1961     2.8269 H       
  48 H48            8.7136     5.9330     4.2479 H       
  49 H49            6.8274     6.4767     2.4037 H       
  50 H50            6.8589     4.9726     3.3615 H       
@<TRIPOS>BOND
   1    1    2 ar
   2    1    6 ar
   3    1   26 1
   4    2    3 ar
   5    2   27 1
   6    3    4 ar
   7    4    5 ar
   8    4    7 1
   9    5    6 ar
  10    5    9 1
  11    6   14 1
  12    7    8 1
  13    8    9 2
  14    8   10 1
  15    9   13 1
  16   10   11 am
  17   10   16 2
  18   11   12 1
  19   11   15 1
  20   12   13 2
  21   12   28 1
  22   14   17 1
  23   14   18 1
  24   14   19 1
  25   15   20 1
  26   15   25 1
  27   15   29 1
  28   17   30 1
  29   17   31 1
  30   17   32 1
  31   18   33 1
  32   18   34 1
  33   18   35 1
  34   19   36 1
  35   19   37 1
  36   19   38 1
  37   20   21 1
  38   20   39 1
  39   20   40 1
  40   21   22 1
  41   21   41 1
  42   21   42 1
  43   22   23 1
  44   22   43 1
  45   22   44 1
  46   23   24 1
  47   23   45 1
  48   23   46 1
  49   24   25 1
  50   24   47 1
  51   24   48 1
  52   25   49 1
  53   25   50 1

#	End of record

