#	Name: ASD02508109
#	Creating user name:	WinNT
#	Creation time:	15. 06. 2019 20:23

#	Modifying user name:	WinNT
#	Modification time:	15. 06. 2019 20:23

#	Program:	/corina/corina34_cracker 3.40 0067  02.08.2006

@<TRIPOS>MOLECULE
ASD02508109
  36   38    0    0    0
SMALL
NO_CHARGES


@<TRIPOS>ATOM
   1 C1            -0.0167     1.3814     0.0096 C.ar    
   2 C2             0.0021    -0.0041     0.0020 C.ar    
   3 C3             1.1798     2.0988     0.0021 C.ar    
   4 C4             2.3882     1.4216    -0.0135 C.ar    
   5 C5             2.4027     0.0342    -0.0215 C.ar    
   6 C6             1.2083    -0.6765    -0.0131 C.ar    
   7 N7            -1.0468     2.3253     0.0189 N.am    
   8 C8            -0.4762     3.5463     0.0233 C.2     
   9 O9             0.8596     3.4161     0.0122 O.3     
  10 N10            3.6223    -0.6509    -0.0377 N.am    
  11 S11            4.2685    -1.1573    -1.4759 S.o2    
  12 C12            5.2917     0.1459    -2.0756 C.2     
  13 S13            4.7573     1.4551    -3.1215 S.3     
  14 O14           -1.0785     4.6027     0.0311 O.2     
  15 O15            5.1365    -2.2391    -1.1670 O.2     
  16 O16            3.1834    -1.2670    -2.3868 O.2     
  17 C17            6.5886     0.2936    -1.8011 C.2     
  18 C18            7.1865     1.3968    -2.3855 C.2     
  19 C19            6.3747     2.1461    -3.1330 C.2     
  20 C20           -2.4837     2.0401     0.0227 C.3     
  21 C21            1.2296    -2.1833    -0.0219 C.3     
  22 C22            4.3278    -0.9203     1.2176 C.3     
  23 H23           -0.9254    -0.5574     0.0083 H       
  24 H24            3.3172     1.9725    -0.0198 H       
  25 H25            7.1310    -0.3951    -1.1703 H       
  26 H26            8.2308     1.6340    -2.2453 H       
  27 H27            6.6656     3.0410    -3.6630 H       
  28 H28           -2.8362     1.9635     1.0513 H       
  29 H29           -3.0153     2.8453    -0.4845 H       
  30 H30           -2.6688     1.0994    -0.4958 H       
  31 H31            1.2454    -2.5524     1.0036 H       
  32 H32            0.3395    -2.5563    -0.5286 H       
  33 H33            2.1192    -2.5311    -0.5470 H       
  34 H34            4.0023    -1.8803     1.6185 H       
  35 H35            5.4015    -0.9494     1.0319 H       
  36 H36            4.1046    -0.1319     1.9363 H       
@<TRIPOS>BOND
   1    1    2 ar
   2    1    3 ar
   3    1    7 1
   4    2    6 ar
   5    2   23 1
   6    3    4 ar
   7    3    9 1
   8    4    5 ar
   9    4   24 1
  10    5    6 ar
  11    5   10 1
  12    6   21 1
  13    7    8 am
  14    7   20 1
  15    8    9 1
  16    8   14 2
  17   10   11 am
  18   10   22 1
  19   11   12 1
  20   11   15 2
  21   11   16 2
  22   12   13 1
  23   12   17 2
  24   13   19 1
  25   17   18 1
  26   17   25 1
  27   18   19 2
  28   18   26 1
  29   19   27 1
  30   20   28 1
  31   20   29 1
  32   20   30 1
  33   21   31 1
  34   21   32 1
  35   21   33 1
  36   22   34 1
  37   22   35 1
  38   22   36 1

#	End of record

