#	Name: ASD03331790
#	Creating user name:	WinNT
#	Creation time:	15. 06. 2019 20:39

#	Modifying user name:	WinNT
#	Modification time:	15. 06. 2019 20:39

#	Program:	/corina/corina34_cracker 3.40 0067  02.08.2006

@<TRIPOS>MOLECULE
ASD03331790
  43   46    0    0    0
SMALL
NO_CHARGES


@<TRIPOS>ATOM
   1 C1            -0.0168     1.3851     0.0097 C.ar    
   2 C2             0.0021    -0.0041     0.0020 C.ar    
   3 C3            -1.1732    -0.7223     0.0098 C.ar    
   4 C4            -2.3925    -0.0527     0.0255 C.ar    
   5 C5            -2.4068     1.3537     0.0332 C.ar    
   6 C6            -1.2039     2.0629     0.0303 C.ar    
   7 N7            -3.7044    -0.4724     0.0363 N.pl3   
   8 C8            -4.5392     0.6115     0.0504 C.2     
   9 C9            -3.8187     1.7442     0.0494 C.2     
  10 Cl10           1.4786     2.2669     0.0001 Cl      
  11 S11           -6.2994     0.5325     0.0664 S.o2    
  12 N12           -6.7743     0.5012     1.6525 N.am    
  13 O13           -6.7613     1.7661    -0.4666 O.2     
  14 O14           -6.6493    -0.7308    -0.4823 O.2     
  15 C15           -6.5228     1.6581     2.5154 C.3     
  16 C16           -7.3530     1.5407     3.7676 C.ar    
  17 N17           -8.6000     1.9703     3.7623 N.ar    
  18 C18           -9.3674     1.8905     4.8303 C.ar    
  19 C19           -8.8793     1.3431     6.0148 C.ar    
  20 C20           -7.5614     0.8788     6.0523 C.ar    
  21 C21           -6.7971     0.9791     4.9027 C.ar    
  22 C22           -9.7442     1.2547     7.2169 C.ar    
  23 C23          -10.4461     2.3749     7.6567 C.ar    
  24 C24           -9.8618     0.0475     7.9078 C.ar    
  25 C25          -10.6689    -0.0288     9.0269 C.ar    
  26 C26          -11.3596     1.0903     9.4621 C.ar    
  27 C27          -11.2495     2.2885     8.7753 C.ar    
  28 F28           -9.1885    -1.0440     7.4829 F       
  29 F29          -12.1479     1.0115    10.5564 F       
  30 H30            0.9476    -0.5259    -0.0105 H       
  31 H31           -1.1482    -1.8020     0.0034 H       
  32 H32           -1.2114     3.1428     0.0362 H       
  33 H33           -3.9933    -1.3984     0.0339 H       
  34 H34           -4.2063     2.7522     0.0589 H       
  35 H35           -7.2190    -0.2831     2.0102 H       
  36 H36           -5.4663     1.6900     2.7815 H       
  37 H37           -6.7918     2.5719     1.9855 H       
  38 H38          -10.3838     2.2531     4.7872 H       
  39 H39           -7.1512     0.4492     6.9543 H       
  40 H40           -5.7750     0.6304     4.8947 H       
  41 H41          -10.3613     3.3099     7.1229 H       
  42 H42          -10.7615    -0.9620     9.5626 H       
  43 H43          -11.7898     3.1582     9.1191 H       
@<TRIPOS>BOND
   1    1    2 ar
   2    1   10 1
   3    1    6 ar
   4    2    3 ar
   5    2   30 1
   6    3    4 ar
   7    3   31 1
   8    4    5 ar
   9    4    7 1
  10    5    6 ar
  11    5    9 1
  12    6   32 1
  13    7    8 1
  14    7   33 1
  15    8    9 2
  16    8   11 1
  17    9   34 1
  18   11   12 am
  19   11   13 2
  20   11   14 2
  21   12   15 1
  22   12   35 1
  23   15   16 1
  24   15   36 1
  25   15   37 1
  26   16   17 ar
  27   16   21 ar
  28   17   18 ar
  29   18   19 ar
  30   18   38 1
  31   19   20 ar
  32   19   22 1
  33   20   21 ar
  34   20   39 1
  35   21   40 1
  36   22   23 ar
  37   22   24 ar
  38   23   27 ar
  39   23   41 1
  40   24   25 ar
  41   24   28 1
  42   25   26 ar
  43   25   42 1
  44   26   27 ar
  45   26   29 1
  46   27   43 1

#	End of record

