#	Name: ASD03430735
#	Creating user name:	WinNT
#	Creation time:	15. 06. 2019 20:41

#	Modifying user name:	WinNT
#	Modification time:	15. 06. 2019 20:41

#	Program:	/corina/corina34_cracker 3.40 0067  02.08.2006

@<TRIPOS>MOLECULE
ASD03430735
  62   68    0    0    0
SMALL
NO_CHARGES


@<TRIPOS>ATOM
   1 C1             2.7120     0.3441     0.0609 C.ar    
   2 C2             2.1299    -0.9161     0.0087 C.ar    
   3 C3             2.8978    -2.0352    -0.2155 C.ar    
   4 C4             4.2746    -1.9189    -0.3856 C.ar    
   5 C5             4.8487    -0.6548    -0.3356 C.ar    
   6 C6             4.0729     0.4718    -0.1101 C.ar    
   7 O7             4.8546    -3.1384    -0.5683 O.3     
   8 C8             2.5724    -3.4987    -0.3426 C.3     
   9 C9             3.8473    -4.0908    -0.9596 C.3     
  10 C10            0.9727    -4.6718     0.8349 C.ar    
  11 C11            2.2469    -4.1281     0.9794 C.ar    
  12 C12            1.3693    -3.7441    -1.2071 C.2     
  13 N13            0.4885    -4.4317    -0.4532 N.am    
  14 O14            1.2194    -3.3922    -2.3581 O.2     
  15 C15            2.9255    -4.2399     2.1721 C.ar    
  16 C16            2.3435    -4.8982     3.2413 C.ar    
  17 C17            1.0799    -5.4436     3.1086 C.ar    
  18 C18            0.3955    -5.3330     1.9158 C.ar    
  19 C19           -0.8238    -4.8759    -0.9294 C.3     
  20 C20            1.8092     1.5256     0.2996 C.3     
  21 C21            4.7737     1.8046    -0.0538 C.3     
  22 C22            2.6201     2.7374     0.7549 C.3     
  23 C23            3.7741     2.9452    -0.2330 C.3     
  24 C24           -1.9048    -4.2049    -0.1218 C.ar    
  25 C25           -3.0452    -4.9057     0.2236 C.ar    
  26 C26           -4.0369    -4.2903     0.9644 C.ar    
  27 C27           -3.8879    -2.9742     1.3603 C.ar    
  28 C28           -2.7470    -2.2737     1.0156 C.ar    
  29 C29           -1.7535    -2.8905     0.2785 C.ar    
  30 C30           -0.9815    -4.5089    -2.3826 C.ar    
  31 C31           -0.9473    -5.4939    -3.3518 C.ar    
  32 C32           -1.0918    -5.1573    -4.6847 C.ar    
  33 C33           -1.2710    -3.8357    -5.0484 C.ar    
  34 C34           -1.3061    -2.8508    -4.0790 C.ar    
  35 C35           -1.1659    -3.1879    -2.7457 C.ar    
  36 H36            1.0636    -1.0184     0.1459 H       
  37 H37            5.9145    -0.5483    -0.4739 H       
  38 H38            3.7641    -4.1422    -2.0452 H       
  39 H39            4.0601    -5.0738    -0.5396 H       
  40 H40            3.9127    -3.8139     2.2733 H       
  41 H41            2.8753    -4.9861     4.1772 H       
  42 H42            0.6267    -5.9589     3.9426 H       
  43 H43           -0.5914    -5.7611     1.8200 H       
  44 H44           -0.9043    -5.9570    -0.8169 H       
  45 H45            1.2853     1.7702    -0.6244 H       
  46 H46            1.0801     1.2713     1.0690 H       
  47 H47            5.2694     1.9095     0.9113 H       
  48 H48            5.5195     1.8524    -0.8472 H       
  49 H49            1.9832     3.6219     0.7669 H       
  50 H50            3.0192     2.5580     1.7532 H       
  51 H51            4.2638     3.8977    -0.0302 H       
  52 H52            3.3897     2.9395    -1.2529 H       
  53 H53           -3.1617    -5.9339    -0.0856 H       
  54 H54           -4.9281    -4.8375     1.2337 H       
  55 H55           -4.6629    -2.4931     1.9384 H       
  56 H56           -2.6308    -1.2454     1.3246 H       
  57 H57           -0.8605    -2.3444     0.0125 H       
  58 H58           -0.8073    -6.5264    -3.0677 H       
  59 H59           -1.0644    -5.9268    -5.4421 H       
  60 H60           -1.3832    -3.5726    -6.0898 H       
  61 H61           -1.4457    -1.8182    -4.3631 H       
  62 H62           -1.1970    -2.4189    -1.9881 H       
@<TRIPOS>BOND
   1    1    2 ar
   2    1    6 ar
   3    1   20 1
   4    2    3 ar
   5    2   36 1
   6    3    4 ar
   7    3    8 1
   8    4    5 ar
   9    4    7 1
  10    5    6 ar
  11    5   37 1
  12    6   21 1
  13    7    9 1
  14    8    9 1
  15    8   11 1
  16    8   12 1
  17    9   38 1
  18    9   39 1
  19   10   11 ar
  20   10   13 1
  21   10   18 ar
  22   11   15 ar
  23   12   13 am
  24   12   14 2
  25   13   19 1
  26   15   16 ar
  27   15   40 1
  28   16   17 ar
  29   16   41 1
  30   17   18 ar
  31   17   42 1
  32   18   43 1
  33   19   24 1
  34   19   30 1
  35   19   44 1
  36   20   22 1
  37   20   45 1
  38   20   46 1
  39   21   23 1
  40   21   47 1
  41   21   48 1
  42   22   23 1
  43   22   49 1
  44   22   50 1
  45   23   51 1
  46   23   52 1
  47   24   25 ar
  48   24   29 ar
  49   25   26 ar
  50   25   53 1
  51   26   27 ar
  52   26   54 1
  53   27   28 ar
  54   27   55 1
  55   28   29 ar
  56   28   56 1
  57   29   57 1
  58   30   31 ar
  59   30   35 ar
  60   31   32 ar
  61   31   58 1
  62   32   33 ar
  63   32   59 1
  64   33   34 ar
  65   33   60 1
  66   34   35 ar
  67   34   61 1
  68   35   62 1

#	End of record

