#	Name: ASD09120018
#	Creating user name:	WinNT
#	Creation time:	15. 06. 2019 21:21

#	Modifying user name:	WinNT
#	Modification time:	15. 06. 2019 21:21

#	Program:	/corina/corina34_cracker 3.40 0067  02.08.2006

@<TRIPOS>MOLECULE
ASD09120018
  38   40    0    0    0
SMALL
NO_CHARGES


@<TRIPOS>ATOM
   1 C1            -0.0166     1.3748     0.0096 C.ar    
   2 C2             0.0021    -0.0041     0.0020 C.ar    
   3 C3             1.2079    -0.6836    -0.0127 C.ar    
   4 C4             2.4019     0.0135    -0.0203 C.ar    
   5 C5             2.3984     1.3951    -0.0133 C.ar    
   6 C6             1.1846     2.0865     0.0020 C.ar    
   7 N7            -1.2708    -0.7595     0.0101 N.pl3   
   8 O8            -2.3328    -0.1632     0.0235 O.2     
   9 O9            -1.2562    -1.9774     0.0034 O.2     
  10 C10            1.1720     3.5641     0.0095 C.2     
  11 O11            2.2195     4.1808     0.0028 O.2     
  12 N12           -0.0008     4.2279     0.0238 N.am    
  13 C13           -0.0132     5.6929     0.0313 C.3     
  14 Cl14           3.8981     2.2694    -0.0224 Cl      
  15 C15           -1.4095     7.7043    -0.3761 C.3     
  16 C16           -1.3181     6.1885    -0.5885 C.3     
  17 C17            0.1197     6.1834     1.4493 C.ar    
  18 C18           -1.6386     7.9694     1.1105 C.3     
  19 C19            1.0321     5.5380     2.2743 C.ar    
  20 C20            1.2041     5.9431     3.5815 C.ar    
  21 C21            0.4631     7.0008     4.0756 C.ar    
  22 C22           -0.4446     7.6419     3.2585 C.ar    
  23 C23           -0.6212     7.2336     1.9426 C.ar    
  24 H24           -0.9585     1.9031     0.0169 H       
  25 H25            1.2161    -1.7636    -0.0178 H       
  26 H26            3.3392    -0.5229    -0.0315 H       
  27 H27           -0.8366     3.7358     0.0292 H       
  28 H28            0.8266     6.0624    -0.5570 H       
  29 H29           -0.4799     8.1762    -0.6941 H       
  30 H30           -2.2421     8.1063    -0.9533 H       
  31 H31           -1.3253     5.9663    -1.6556 H       
  32 H32           -2.1634     5.6986    -0.1053 H       
  33 H33           -1.5539     9.0391     1.3020 H       
  34 H34           -2.6385     7.6337     1.3856 H       
  35 H35            1.6114     4.7119     1.8890 H       
  36 H36            1.9147     5.4357     4.2170 H       
  37 H37            0.5945     7.3236     5.0978 H       
  38 H38           -1.0228     8.4681     3.6451 H       
@<TRIPOS>BOND
   1    1    2 ar
   2    1    6 ar
   3    1   24 1
   4    2    3 ar
   5    2    7 1
   6    3    4 ar
   7    3   25 1
   8    4    5 ar
   9    4   26 1
  10    5    6 ar
  11    5   14 1
  12    6   10 1
  13    7    8 2
  14    7    9 2
  15   10   11 2
  16   10   12 am
  17   12   13 1
  18   12   27 1
  19   13   17 1
  20   13   16 1
  21   13   28 1
  22   15   16 1
  23   15   18 1
  24   15   29 1
  25   15   30 1
  26   16   31 1
  27   16   32 1
  28   17   19 ar
  29   17   23 ar
  30   18   23 1
  31   18   33 1
  32   18   34 1
  33   19   20 ar
  34   19   35 1
  35   20   21 ar
  36   20   36 1
  37   21   22 ar
  38   21   37 1
  39   22   23 ar
  40   22   38 1

#	End of record

