#	Name: ASD01882783
#	Creating user name:	WinNT
#	Creation time:	15. 06. 2019 19:45

#	Modifying user name:	WinNT
#	Modification time:	15. 06. 2019 19:45

#	Program:	/corina/corina34_cracker 3.40 0067  02.08.2006

@<TRIPOS>MOLECULE
ASD01882783
  38   39    0    0    0
SMALL
NO_CHARGES


@<TRIPOS>ATOM
   1 C1            -0.0177     1.3878    -0.0380 C.2     
   2 C2             0.0021    -0.0041     0.0020 C.2     
   3 C3            -1.2086    -0.6960     0.0576 C.2     
   4 C4            -2.3822    -0.0152     0.0716 C.2     
   5 N5            -2.4094     1.3392     0.0324 N.am    
   6 C6            -1.2701     2.0555    -0.0148 C.2     
   7 C7             1.2040     2.1325    -0.0954 C.1     
   8 C8            -3.6984     2.0351     0.0484 C.3     
   9 C9            -4.1064     2.3199     1.4952 C.3     
  10 O10           -1.3145     3.2732    -0.0496 O.2     
  11 N11            2.1732     2.7233    -0.1410 N.1     
  12 C12           -5.4526     3.0467     1.5118 C.3     
  13 C13           -5.9204     3.2207     2.9581 C.3     
  14 C14           -5.2984     4.4208     0.8569 C.3     
  15 N15            1.2159    -0.6975    -0.0137 N.3     
  16 C16            1.2535    -1.4445     1.0737 C.2     
  17 C17            1.4156    -2.7802     0.9742 C.2     
  18 N18            1.5383    -3.3465    -0.2303 N.2     
  19 C19            1.4991    -2.5820    -1.3261 C.2     
  20 C20            1.3362    -1.2479    -1.2072 C.2     
  21 H21           -1.2114    -1.7755     0.0891 H       
  22 H22           -3.3121    -0.5629     0.1143 H       
  23 H23           -3.6104     2.9753    -0.4961 H       
  24 H24           -4.4548     1.4099    -0.4261 H       
  25 H25           -4.1944     1.3797     2.0396 H       
  26 H26           -3.3500     2.9451     1.9697 H       
  27 H27           -6.1883     2.4617     0.9599 H       
  28 H28           -5.1848     3.8058     3.5101 H       
  29 H29           -6.8795     3.7386     2.9700 H       
  30 H30           -6.0303     2.2418     3.4248 H       
  31 H31           -4.9652     4.2969    -0.1735 H       
  32 H32           -6.2575     4.9386     0.8687 H       
  33 H33           -4.5628     5.0059     1.4088 H       
  34 H34            1.9476    -0.0080     0.0719 H       
  35 H35            1.1545    -0.9852     2.0461 H       
  36 H36            1.4465    -3.3900     1.8651 H       
  37 H37            1.5974    -3.0307    -2.3035 H       
  38 H38            1.3039    -0.6286    -2.0914 H       
@<TRIPOS>BOND
   1    1    2 2
   2    1    7 1
   3    1    6 1
   4    2    3 1
   5    2   15 1
   6    3    4 2
   7    3   21 1
   8    4    5 1
   9    4   22 1
  10    5    6 am
  11    5    8 1
  12    6   10 2
  13    7   11 3
  14    8    9 1
  15    8   23 1
  16    8   24 1
  17    9   12 1
  18    9   25 1
  19    9   26 1
  20   12   13 1
  21   12   14 1
  22   12   27 1
  23   13   28 1
  24   13   29 1
  25   13   30 1
  26   14   31 1
  27   14   32 1
  28   14   33 1
  29   15   16 2
  30   15   20 1
  31   15   34 1
  32   16   17 1
  33   16   35 1
  34   17   18 2
  35   17   36 1
  36   18   19 1
  37   19   20 2
  38   19   37 1
  39   20   38 1

#	End of record

