#	Name: ASD04370048
#	Creating user name:	WinNT
#	Creation time:	15. 06. 2019 20:49

#	Modifying user name:	WinNT
#	Modification time:	15. 06. 2019 20:49

#	Program:	/corina/corina34_cracker 3.40 0067  02.08.2006

@<TRIPOS>MOLECULE
ASD04370048
  61   61    0    0    0
SMALL
NO_CHARGES


@<TRIPOS>ATOM
   1 C1             3.7262    -0.6620    -0.1695 C.2     
   2 C2             2.5540     0.1906    -0.5819 C.3     
   3 C3             1.2802    -0.3392     0.0798 C.3     
   4 C4             0.0696     0.4252    -0.4595 C.3     
   5 O5             3.5741    -1.5490     0.6367 O.2     
   6 O6             4.9382    -0.4394    -0.7018 O.3     
   7 N7            -1.1393    -0.0043     0.2562 N.3     
   8 C8            -2.2767     0.8699    -0.0597 C.3     
   9 C9            -1.4558    -1.4079    -0.0403 C.3     
  10 N10            1.3693    -0.1525     1.5301 N.am    
  11 C11            1.5501     1.0816     2.0408 C.2     
  12 C12            1.7590     1.2608     3.5224 C.3     
  13 C13            1.9377     2.7476     3.8362 C.3     
  14 C14            2.1497     2.9295     5.3404 C.3     
  15 C15            2.3284     4.4163     5.6542 C.3     
  16 C16            2.5405     4.5982     7.1585 C.3     
  17 C17            2.7192     6.0850     7.4722 C.3     
  18 C18            2.9313     6.2669     8.9765 C.3     
  19 O19            1.5447     2.0480     1.3079 O.2     
  20 O20            3.0981     7.6555     9.2695 O.3     
  21 C21            3.3040     7.9364    10.6554 C.3     
  22 C22            3.4669     9.4222    10.8480 C.ar    
  23 C23            2.3594    10.2133    11.0897 C.ar    
  24 C24            2.5088    11.5761    11.2664 C.ar    
  25 C25            3.7658    12.1478    11.2017 C.ar    
  26 C26            4.8734    11.3565    10.9609 C.ar    
  27 C27            4.7245     9.9931    10.7886 C.ar    
  28 H28            2.7253     1.2202    -0.2678 H       
  29 H29            2.4423     0.1551    -1.6655 H       
  30 H30            1.1690    -1.4002    -0.1438 H       
  31 H31            0.2193     1.4946    -0.3105 H       
  32 H32           -0.0457     0.2192    -1.5236 H       
  33 H33            5.6593    -1.0119    -0.4064 H       
  34 H34           -2.4211     0.9024    -1.1396 H       
  35 H35           -3.1771     0.4808     0.4157 H       
  36 H36           -2.0760     1.8753     0.3104 H       
  37 H37           -0.6237    -2.0409     0.2679 H       
  38 H38           -2.3549    -1.7000     0.5023 H       
  39 H39           -1.6236    -1.5241    -1.1110 H       
  40 H40            1.2982    -0.9170     2.1228 H       
  41 H41            0.8920     0.8775     4.0605 H       
  42 H42            2.6497     0.7144     3.8325 H       
  43 H43            2.8047     3.1308     3.2981 H       
  44 H44            1.0469     3.2940     3.5261 H       
  45 H45            1.2828     2.5462     5.8786 H       
  46 H46            3.0405     2.3831     5.6505 H       
  47 H47            3.1954     4.7995     5.1161 H       
  48 H48            1.4377     4.9626     5.3441 H       
  49 H49            1.6735     4.2149     7.6966 H       
  50 H50            3.4313     4.0518     7.4685 H       
  51 H51            3.5862     6.4682     6.9341 H       
  52 H52            1.8284     6.6313     7.1622 H       
  53 H53            2.0643     5.8836     9.5146 H       
  54 H54            3.8220     5.7205     9.2865 H       
  55 H55            2.4448     7.5878    11.2284 H       
  56 H56            4.2025     7.4247    11.0003 H       
  57 H57            1.3774     9.7667    11.1403 H       
  58 H58            1.6435    12.1943    11.4545 H       
  59 H59            3.8824    13.2127    11.3390 H       
  60 H60            5.8554    11.8032    10.9100 H       
  61 H61            5.5902     9.3743    10.6041 H       
@<TRIPOS>BOND
   1    1    2 1
   2    1    5 2
   3    1    6 1
   4    2    3 1
   5    2   28 1
   6    2   29 1
   7    3    4 1
   8    3   10 1
   9    3   30 1
  10    4    7 1
  11    4   31 1
  12    4   32 1
  13    6   33 1
  14    7    8 1
  15    7    9 1
  16    8   34 1
  17    8   35 1
  18    8   36 1
  19    9   37 1
  20    9   38 1
  21    9   39 1
  22   10   11 am
  23   10   40 1
  24   11   12 1
  25   11   19 2
  26   12   13 1
  27   12   41 1
  28   12   42 1
  29   13   14 1
  30   13   43 1
  31   13   44 1
  32   14   15 1
  33   14   45 1
  34   14   46 1
  35   15   16 1
  36   15   47 1
  37   15   48 1
  38   16   17 1
  39   16   49 1
  40   16   50 1
  41   17   18 1
  42   17   51 1
  43   17   52 1
  44   18   20 1
  45   18   53 1
  46   18   54 1
  47   20   21 1
  48   21   22 1
  49   21   55 1
  50   21   56 1
  51   22   23 ar
  52   22   27 ar
  53   23   24 ar
  54   23   57 1
  55   24   25 ar
  56   24   58 1
  57   25   26 ar
  58   25   59 1
  59   26   27 ar
  60   26   60 1
  61   27   61 1

#	End of record

