#	Name: ASD07931860
#	Creating user name:	WinNT
#	Creation time:	15. 06. 2019 21:13

#	Modifying user name:	WinNT
#	Modification time:	15. 06. 2019 21:13

#	Program:	/corina/corina34_cracker 3.40 0067  02.08.2006

@<TRIPOS>MOLECULE
ASD07931860
  58   60    0    0    0
SMALL
NO_CHARGES


@<TRIPOS>ATOM
   1 C1             2.0289     0.3359     1.0293 C.3     
   2 C2             0.9050     0.3056    -0.0083 C.3     
   3 C3             0.8256     1.6609    -0.7139 C.3     
   4 C4            -0.3059     1.6343    -1.7435 C.3     
   5 C5            -0.4251     2.9583    -2.3757 C.1     
   6 C6            -0.5202     4.0142    -2.8799 C.1     
   7 O7             2.0645     1.9274    -1.3743 O.3     
   8 C8            -0.6362     5.3022    -3.4950 C.ar    
   9 C9            -1.6049     5.5265    -4.4740 C.ar    
  10 C10           -1.7117     6.7699    -5.0623 C.ar    
  11 C11           -0.8611     7.7931    -4.6836 C.ar    
  12 C12            0.1017     7.5771    -3.7139 C.ar    
  13 C13            0.2152     6.3399    -3.1137 C.ar    
  14 C14           -0.9835     9.1487    -5.3305 C.3     
  15 F15           -1.8788     9.9357    -4.5981 F       
  16 F16            0.2703     9.7687    -5.3549 F       
  17 F17           -1.4558     9.0000    -6.6389 F       
  18 N18            1.1794    -0.7458    -0.9969 N.3     
  19 C19            2.6116    -0.8050    -1.3185 C.3     
  20 C20            2.8085    -1.5862    -2.5921 C.ar    
  21 C21            2.7879    -0.9362    -3.8119 C.ar    
  22 C22            2.9685    -1.6527    -4.9801 C.ar    
  23 C23            3.1701    -3.0193    -4.9286 C.ar    
  24 C24            3.1917    -3.6693    -3.7087 C.ar    
  25 C25            3.0154    -2.9520    -2.5402 C.ar    
  26 C26            0.6907    -2.0494    -0.5285 C.3     
  27 C27           -0.8132    -2.0842    -0.6189 C.ar    
  28 C28           -1.4264    -2.4109    -1.8140 C.ar    
  29 C29           -2.8059    -2.4427    -1.8969 C.ar    
  30 C30           -3.5722    -2.1482    -0.7847 C.ar    
  31 C31           -2.9590    -1.8223     0.4105 C.ar    
  32 C32           -1.5795    -1.7948     0.4946 C.ar    
  33 H33            2.0855    -0.6297     1.5320 H       
  34 H34            2.9767     0.5429     0.5324 H       
  35 H35            1.8253     1.1160     1.7629 H       
  36 H36           -0.0428     0.0986     0.4886 H       
  37 H37            0.6301     2.4420     0.0208 H       
  38 H38           -0.0863     0.8864    -2.5053 H       
  39 H39           -1.2431     1.3831    -1.2470 H       
  40 H40            2.1929     1.4216    -2.1884 H       
  41 H41           -2.2693     4.7284    -4.7707 H       
  42 H42           -2.4608     6.9447    -5.8204 H       
  43 H43            0.7632     8.3798    -3.4232 H       
  44 H44            0.9642     6.1739    -2.3536 H       
  45 H45            2.9968     0.2062    -1.4493 H       
  46 H46            3.1466    -1.2953    -0.5052 H       
  47 H47            2.6303     0.1315    -3.8522 H       
  48 H48            2.9516    -1.1450    -5.9332 H       
  49 H49            3.3105    -3.5793    -5.8413 H       
  50 H50            3.3489    -4.7370    -3.6685 H       
  51 H51            3.0359    -3.4592    -1.5870 H       
  52 H52            1.1104    -2.8398    -1.1507 H       
  53 H53            0.9960    -2.2013     0.5068 H       
  54 H54           -0.8277    -2.6410    -2.6829 H       
  55 H55           -3.2850    -2.6972    -2.8308 H       
  56 H56           -4.6500    -2.1723    -0.8498 H       
  57 H57           -3.5577    -1.5919     1.2794 H       
  58 H58           -1.1004    -1.5438     1.4295 H       
@<TRIPOS>BOND
   1    1    2 1
   2    1   33 1
   3    1   34 1
   4    1   35 1
   5    2    3 1
   6    2   18 1
   7    2   36 1
   8    3    4 1
   9    3    7 1
  10    3   37 1
  11    4    5 1
  12    4   38 1
  13    4   39 1
  14    5    6 3
  15    6    8 1
  16    7   40 1
  17    8    9 ar
  18    8   13 ar
  19    9   10 ar
  20    9   41 1
  21   10   11 ar
  22   10   42 1
  23   11   12 ar
  24   11   14 1
  25   12   13 ar
  26   12   43 1
  27   13   44 1
  28   14   15 1
  29   14   16 1
  30   14   17 1
  31   18   19 1
  32   18   26 1
  33   19   20 1
  34   19   45 1
  35   19   46 1
  36   20   21 ar
  37   20   25 ar
  38   21   22 ar
  39   21   47 1
  40   22   23 ar
  41   22   48 1
  42   23   24 ar
  43   23   49 1
  44   24   25 ar
  45   24   50 1
  46   25   51 1
  47   26   27 1
  48   26   52 1
  49   26   53 1
  50   27   28 ar
  51   27   32 ar
  52   28   29 ar
  53   28   54 1
  54   29   30 ar
  55   29   55 1
  56   30   31 ar
  57   30   56 1
  58   31   32 ar
  59   31   57 1
  60   32   58 1

#	End of record

