#	Name: ASD04910066
#	Creating user name:	WinNT
#	Creation time:	15. 06. 2019 20:55

#	Modifying user name:	WinNT
#	Modification time:	15. 06. 2019 20:55

#	Program:	/corina/corina34_cracker 3.40 0067  02.08.2006

@<TRIPOS>MOLECULE
ASD04910066
  21   22    0    0    0
SMALL
NO_CHARGES


@<TRIPOS>ATOM
   1 N1            -0.0169     1.3967     0.0097 N.pl3   
   2 N2             0.0021    -0.0041     0.0020 N.2     
   3 C3             1.2503    -0.3977    -0.0120 C.2     
   4 C4             2.0710     0.7367    -0.0138 C.2     
   5 C5             1.2719     1.8299    -0.0003 C.2     
   6 C6            -1.1606     2.2071     0.0198 C.ar    
   7 C7            -2.4228     1.6289     0.0234 C.ar    
   8 C8            -3.5479     2.4301     0.0333 C.ar    
   9 C9            -3.4180     3.8067     0.0395 C.ar    
  10 C10           -2.1622     4.3855     0.0360 C.ar    
  11 C11           -1.0334     3.5896     0.0319 C.ar    
  12 N12           -4.6257     4.6625     0.0496 N.pl3   
  13 O13           -5.7324     4.1540     0.0524 O.2     
  14 O14           -4.5127     5.8753     0.0552 O.2     
  15 F15            3.4220     0.7400    -0.0262 F       
  16 H16            1.5894    -1.4231    -0.0204 H       
  17 H17            1.5990     2.8592     0.0016 H       
  18 H18           -2.5249     0.5537     0.0181 H       
  19 H19           -4.5300     1.9809     0.0357 H       
  20 H20           -2.0639     5.4611     0.0409 H       
  21 H21           -0.0528     4.0422     0.0336 H       
@<TRIPOS>BOND
   1    1    2 1
   2    1    5 1
   3    1    6 1
   4    2    3 2
   5    3    4 1
   6    3   16 1
   7    4    5 2
   8    4   15 1
   9    5   17 1
  10    6    7 ar
  11    6   11 ar
  12    7    8 ar
  13    7   18 1
  14    8    9 ar
  15    8   19 1
  16    9   10 ar
  17    9   12 1
  18   10   11 ar
  19   10   20 1
  20   11   21 1
  21   12   13 2
  22   12   14 2

#	End of record

