#	Name: ASD07931820
#	Creating user name:	WinNT
#	Creation time:	15. 06. 2019 21:13

#	Modifying user name:	WinNT
#	Modification time:	15. 06. 2019 21:13

#	Program:	/corina/corina34_cracker 3.40 0067  02.08.2006

@<TRIPOS>MOLECULE
ASD07931820
  65   68    0    0    0
SMALL
NO_CHARGES


@<TRIPOS>ATOM
   1 C1            -0.0180     1.4754     0.0102 C.2     
   2 C2             0.0021    -0.0041     0.0020 C.2     
   3 N3             1.1814     2.1509     0.0023 N.am    
   4 N4             1.1194    -0.6400     0.4288 N.am    
   5 C5             2.2493     0.1650     0.9143 C.3     
   6 C6             2.4261     1.3707    -0.0208 C.3     
   7 C7            -1.2008     2.1485     0.0195 C.2     
   8 C8            -1.2247     3.5486     0.0291 C.2     
   9 C9            -0.0458     4.2425     0.0303 C.2     
  10 C10            1.2139     3.4948     0.0143 C.2     
  11 O11           -0.9642    -0.6358    -0.3794 O.2     
  12 O12            2.2807     4.0852     0.0118 O.2     
  13 C13            0.4239     6.4402     1.0348 C.2     
  14 N14            0.2552     7.6848     0.6804 N.2     
  15 C15           -0.3161     7.7283    -0.5326 C.2     
  16 C16           -0.5113     6.4636    -0.9513 C.2     
  17 N17           -0.0431     5.6402     0.0404 N.pl3   
  18 C18           -0.6774     8.9771    -1.2948 C.3     
  19 C19            1.2002    -2.1026     0.4064 C.3     
  20 O20            3.1425    -2.1405    -1.0739 O.3     
  21 C21            1.7676    -2.5615    -0.9383 C.3     
  22 C22            1.8191    -4.1041    -1.0021 C.3     
  23 C23            3.1254    -4.4047    -1.7704 C.3     
  24 C24            3.7087    -3.0082    -2.0801 C.3     
  25 C25            5.2113    -3.0307    -1.9682 C.ar    
  26 C26            5.9810    -3.3691    -3.0657 C.ar    
  27 C27            7.3590    -3.3903    -2.9636 C.ar    
  28 C28            7.9685    -3.0723    -1.7627 C.ar    
  29 C29            7.1979    -2.7333    -0.6651 C.ar    
  30 C30            5.8197    -2.7074    -0.7699 C.ar    
  31 C31            5.3171    -3.7155    -4.3735 C.3     
  32 F32            6.2949    -4.0205    -5.3265 F       
  33 F33            4.4805    -4.8221    -4.1931 F       
  34 F34            4.5597    -2.6253    -4.8151 F       
  35 Cl35           9.6995    -3.0993    -1.6335 Cl      
  36 H36            2.0426     0.5136     1.9261 H       
  37 H37            3.1572    -0.4381     0.9099 H       
  38 H38            2.6247     1.0242    -1.0350 H       
  39 H39            3.2543     1.9881     0.3270 H       
  40 H40           -2.1297     1.5976     0.0190 H       
  41 H41           -2.1668     4.0767     0.0353 H       
  42 H42            0.8650     6.1025     1.9610 H       
  43 H43           -0.9521     6.1566    -1.8883 H       
  44 H44            0.1651     9.2797    -1.9167 H       
  45 H45           -1.5430     8.7793    -1.9270 H       
  46 H46           -0.9156     9.7756    -0.5921 H       
  47 H47            1.8522    -2.4428     1.2110 H       
  48 H48            0.2042    -2.5236     0.5432 H       
  49 H49            1.1675    -2.1676    -1.7586 H       
  50 H50            1.8606    -4.5266     0.0019 H       
  51 H51            0.9581    -4.4928    -1.5458 H       
  52 H52            3.8127    -4.9759    -1.1464 H       
  53 H53            2.9102    -4.9421    -2.6940 H       
  54 H54            3.4063    -2.6829    -3.0755 H       
  55 H55            7.9601    -3.6554    -3.8208 H       
  56 H56            7.6730    -2.4854     0.2726 H       
  57 H57            5.2181    -2.4385     0.0857 H       
  58 C58           15.8709    16.7638     8.1078 C.2     
  59 C59           15.8913    15.2570     8.0995 C.3     
  60 O60           16.9089    17.3821     8.1012 O.2     
  61 O61           14.6995    17.4191     8.1169 O.3     
  62 F62           17.2165    14.8087     8.0844 F       
  63 F63           15.2492    14.7756     9.2454 F       
  64 F64           15.2273    14.7879     6.9610 F       
  65 H65           14.7370    18.3854     8.1220 H       
@<TRIPOS>BOND
   1    1    2 1
   2    1    3 1
   3    1    7 2
   4    2    4 am
   5    2   11 2
   6    3    6 1
   7    3   10 am
   8    4    5 1
   9    4   19 1
  10    5    6 1
  11    5   36 1
  12    5   37 1
  13    6   38 1
  14    6   39 1
  15    7    8 1
  16    7   40 1
  17    8    9 2
  18    8   41 1
  19    9   10 1
  20    9   17 1
  21   10   12 2
  22   13   14 2
  23   13   17 1
  24   13   42 1
  25   14   15 1
  26   15   16 2
  27   15   18 1
  28   16   17 1
  29   16   43 1
  30   18   44 1
  31   18   45 1
  32   18   46 1
  33   19   21 1
  34   19   47 1
  35   19   48 1
  36   20   21 1
  37   20   24 1
  38   21   22 1
  39   21   49 1
  40   22   23 1
  41   22   50 1
  42   22   51 1
  43   23   24 1
  44   23   52 1
  45   23   53 1
  46   24   25 1
  47   24   54 1
  48   25   26 ar
  49   25   30 ar
  50   26   27 ar
  51   26   31 1
  52   27   28 ar
  53   27   55 1
  54   28   29 ar
  55   28   35 1
  56   29   30 ar
  57   29   56 1
  58   30   57 1
  59   31   32 1
  60   31   33 1
  61   31   34 1
  62   58   59 1
  63   58   60 2
  64   58   61 1
  65   59   62 1
  66   59   63 1
  67   59   64 1
  68   61   65 1

#	End of record

