#	Name: ASD00510009
#	Creating user name:	WinNT
#	Creation time:	15. 06. 2019 18:36

#	Modifying user name:	WinNT
#	Modification time:	15. 06. 2019 18:36

#	Program:	/corina/corina34_cracker 3.40 0067  02.08.2006

@<TRIPOS>MOLECULE
ASD00510009
  42   45    0    0    0
SMALL
NO_CHARGES


@<TRIPOS>ATOM
   1 C1            -0.0169     1.3952     0.0097 C.ar    
   2 C2             0.0021    -0.0041     0.0020 C.ar    
   3 C3             1.1964    -0.6620    -0.0129 C.ar    
   4 C4             2.3990     0.0400    -0.0205 C.ar    
   5 C5             2.4162     1.4018    -0.0129 C.ar    
   6 C6             1.2039     2.1123     0.0019 C.ar    
   7 C7             1.1825     3.5186     0.0085 C.ar    
   8 C8             0.0048     4.1971     0.0228 C.ar    
   9 C9            -1.2230     3.5371     0.0311 C.ar    
  10 C10           -1.2751     2.1411     0.0196 C.ar    
  11 N11           -2.4684     1.4904     0.0223 N.2     
  12 N12           -3.5695     2.1624     0.0311 N.2     
  13 C13           -4.7629     1.5117     0.0338 C.ar    
  14 C14           -7.2419     1.5406     0.0461 C.ar    
  15 C15           -7.2205     0.1342     0.0395 C.ar    
  16 C16           -6.0427    -0.5443     0.0356 C.ar    
  17 C17           -4.8149     0.1157     0.0329 C.ar    
  18 C18           -6.0211     2.2576     0.0437 C.ar    
  19 C19           -6.0402     3.6569     0.0513 C.ar    
  20 C20           -7.2347     4.3147     0.0609 C.ar    
  21 C21           -8.4372     3.6127     0.0632 C.ar    
  22 C22           -8.4542     2.2509     0.0560 C.ar    
  23 O23           -2.3746     4.2549     0.0454 O.3     
  24 S24            2.7012     4.4120    -0.0013 S.o2    
  25 O25            2.9817     4.7415     1.3522 O.2     
  26 O26            3.5955     3.6741    -0.8229 O.2     
  27 O27            2.4447     5.7289    -0.7199 O.3     
  28 O28           -3.6632    -0.6022     0.0290 O.3     
  29 H29           -0.9240    -0.5598     0.0082 H       
  30 H30            1.2099    -1.7419    -0.0184 H       
  31 H31            3.3321    -0.5036    -0.0323 H       
  32 H32            3.3565     1.9329    -0.0183 H       
  33 H33            0.0207     5.2770     0.0283 H       
  34 H34           -8.1514    -0.4134     0.0413 H       
  35 H35           -6.0586    -1.6242     0.0306 H       
  36 H36           -5.1142     4.2127     0.0500 H       
  37 H37           -7.2482     5.3946     0.0671 H       
  38 H38           -9.3705     4.1563     0.0711 H       
  39 H39           -9.3946     1.7197     0.0575 H       
  40 H40           -2.7166     4.4673    -0.8339 H       
  41 H41            3.2217     6.3013    -0.7815 H       
  42 H42           -3.3319    -0.8093    -0.8556 H       
@<TRIPOS>BOND
   1    1    2 ar
   2    1    6 ar
   3    1   10 ar
   4    2    3 ar
   5    2   29 1
   6    3    4 ar
   7    3   30 1
   8    4    5 ar
   9    4   31 1
  10    5    6 ar
  11    5   32 1
  12    6    7 ar
  13    7    8 ar
  14    7   24 1
  15    8    9 ar
  16    8   33 1
  17    9   10 ar
  18    9   23 1
  19   10   11 1
  20   11   12 2
  21   12   13 1
  22   13   18 ar
  23   13   17 ar
  24   14   15 ar
  25   14   18 ar
  26   14   22 ar
  27   15   16 ar
  28   15   34 1
  29   16   17 ar
  30   16   35 1
  31   17   28 1
  32   18   19 ar
  33   19   20 ar
  34   19   36 1
  35   20   21 ar
  36   20   37 1
  37   21   22 ar
  38   21   38 1
  39   22   39 1
  40   23   40 1
  41   24   25 2
  42   24   26 2
  43   24   27 1
  44   27   41 1
  45   28   42 1

#	End of record

