#	Name: ASD01190097
#	Creating user name:	WinNT
#	Creation time:	15. 06. 2019 19:07

#	Modifying user name:	WinNT
#	Modification time:	15. 06. 2019 19:07

#	Program:	/corina/corina34_cracker 3.40 0067  02.08.2006

@<TRIPOS>MOLECULE
ASD01190097
  56   59    0    0    0
SMALL
NO_CHARGES


@<TRIPOS>ATOM
   1 N1            -0.0072     1.2489     0.4075 N.pl3   
   2 C2            -0.0071     0.1190    -0.3796 C.2     
   3 C3             1.3085    -0.1968    -0.6510 C.2     
   4 C4             2.0987     0.7638    -0.0128 C.2     
   5 C5             1.2702     1.6280     0.6216 C.2     
   6 C6            -1.1876    -0.6138    -0.8438 C.2     
   7 O7            -1.0549    -1.6033    -1.5383 O.2     
   8 O8            -2.4218    -0.1910    -0.5010 O.3     
   9 C9             3.6043     0.8266    -0.0275 C.3     
  10 C10            4.1048     0.7298    -1.4701 C.3     
  11 O11            4.0350     2.0634     0.5442 O.3     
  12 N12            5.5470    -3.6162     2.8180 N.pl3   
  13 N13            4.8801    -4.6281     2.1196 N.2     
  14 C14            4.1479    -4.1116     1.1737 C.2     
  15 C15            4.3165    -2.6626     1.2191 C.ar    
  16 C16            3.7977    -1.5991     0.4721 C.ar    
  17 C17            4.1627    -0.3196     0.7759 C.ar    
  18 C18            5.0447    -0.0637     1.8188 C.ar    
  19 C19            5.5648    -1.0854     2.5620 C.ar    
  20 C20            5.2103    -2.4009     2.2756 C.ar    
  21 C21            6.4142    -3.8111     3.9008 C.ar    
  22 C22            6.1707    -4.8304     4.8120 C.ar    
  23 C23            7.0268    -5.0208     5.8787 C.ar    
  24 C24            8.1276    -4.1962     6.0401 C.ar    
  25 C25            8.3723    -3.1792     5.1326 C.ar    
  26 C26            7.5218    -2.9890     4.0613 C.ar    
  27 F27            8.9637    -4.3839     7.0846 F       
  28 F28            3.5864     1.7939    -2.2159 F       
  29 F29            5.5025     0.7881    -1.4836 F       
  30 F30            3.6831    -0.4810    -2.0297 F       
  31 C31           -1.1975     1.9304     0.9221 C.3     
  32 C32           -1.6388     1.2717     2.2037 C.2     
  33 C33           -1.7827     1.9867     3.2919 C.2     
  34 C34           -3.5454    -0.9657    -0.9967 C.3     
  35 C35           -4.8526    -0.3382    -0.5084 C.3     
  36 H36            1.6608    -1.0282    -1.2436 H       
  37 H37            1.5817     2.4824     1.2041 H       
  38 H38            3.7529     2.1928     1.4600 H       
  39 H39            3.5270    -4.6583     0.4794 H       
  40 H40            3.1123    -1.7898    -0.3405 H       
  41 H41            5.3228     0.9552     2.0443 H       
  42 H42            6.2496    -0.8730     3.3696 H       
  43 H43            5.3121    -5.4735     4.6867 H       
  44 H44            6.8376    -5.8132     6.5878 H       
  45 H45            9.2311    -2.5369     5.2604 H       
  46 H46            7.7157    -2.1988     3.3511 H       
  47 H47           -0.9623     2.9773     1.1140 H       
  48 H48           -1.9991     1.8671     0.1863 H       
  49 H49           -1.8365     0.2101     2.2250 H       
  50 H50           -1.5851     3.0482     3.2706 H       
  51 H51           -2.0990     1.5146     4.2103 H       
  52 H52           -3.5300    -0.9716    -2.0866 H       
  53 H53           -3.4729    -1.9885    -0.6268 H       
  54 H54           -4.8679    -0.3323     0.5814 H       
  55 H55           -4.9250     0.6845    -0.8783 H       
  56 H56           -5.6960    -0.9198    -0.8805 H       
@<TRIPOS>BOND
   1    1    2 1
   2    1    5 1
   3    1   31 1
   4    2    3 2
   5    2    6 1
   6    3    4 1
   7    3   36 1
   8    4    5 2
   9    4    9 1
  10    5   37 1
  11    6    7 2
  12    6    8 1
  13    8   34 1
  14    9   10 1
  15    9   11 1
  16    9   17 1
  17   10   28 1
  18   10   29 1
  19   10   30 1
  20   11   38 1
  21   12   13 1
  22   12   20 1
  23   12   21 1
  24   13   14 2
  25   14   15 1
  26   14   39 1
  27   15   16 ar
  28   15   20 ar
  29   16   17 ar
  30   16   40 1
  31   17   18 ar
  32   18   19 ar
  33   18   41 1
  34   19   20 ar
  35   19   42 1
  36   21   22 ar
  37   21   26 ar
  38   22   23 ar
  39   22   43 1
  40   23   24 ar
  41   23   44 1
  42   24   25 ar
  43   24   27 1
  44   25   26 ar
  45   25   45 1
  46   26   46 1
  47   31   32 1
  48   31   47 1
  49   31   48 1
  50   32   33 2
  51   32   49 1
  52   33   50 1
  53   33   51 1
  54   34   35 1
  55   34   52 1
  56   34   53 1
  57   35   54 1
  58   35   55 1
  59   35   56 1

#	End of record

