#	Name: ASD01916108
#	Creating user name:	WinNT
#	Creation time:	15. 06. 2019 20:06

#	Modifying user name:	WinNT
#	Modification time:	15. 06. 2019 20:06

#	Program:	/corina/corina34_cracker 3.40 0067  02.08.2006

@<TRIPOS>MOLECULE
ASD01916108
  39   42    0    0    0
SMALL
NO_CHARGES


@<TRIPOS>ATOM
   1 C1            -0.0169     1.3971     0.0097 C.ar    
   2 C2             0.0021    -0.0041     0.0020 C.ar    
   3 N3            -1.1443    -0.6596     0.0095 N.ar    
   4 C4            -2.2993    -0.0109     0.0240 C.ar    
   5 N5            -3.4811    -0.7399     0.0315 N.am    
   6 C6             1.2018     2.1490     0.0021 C.1     
   7 C7             2.2009     2.7654    -0.0041 C.1     
   8 C8             3.4197     3.5172    -0.0117 C.ar    
   9 C9             3.3823     4.9142    -0.0038 C.ar    
  10 C10            4.5591     5.6325    -0.0107 C.ar    
  11 N11           -2.3607     1.3124     0.0322 N.ar    
  12 C12           -1.2606     2.0429     0.0192 C.ar    
  13 C13            4.6513     2.8569    -0.0212 C.ar    
  14 C14            5.7776     4.9718    -0.0254 C.ar    
  15 N15           -4.7183    -0.1669     0.0464 N.3     
  16 C16           -5.6932    -1.1927    -0.4140 C.3     
  17 C17           -4.9814    -2.5062    -0.0137 C.3     
  18 C18           -3.5236    -2.0848     0.0188 C.2     
  19 C19            5.8213     3.5864    -0.0280 C.ar    
  20 O20           -2.5661    -2.8288     0.0369 O.2     
  21 C21           -5.1074     0.1647     1.4398 C.3     
  22 C22           -6.6551     0.1448     1.3998 C.3     
  23 C23           -6.9606    -1.0281     0.4409 C.3     
  24 F24            6.9274     5.6811    -0.0321 F       
  25 H25            0.9398    -0.5396    -0.0102 H       
  26 H26            2.4335     5.4301     0.0073 H       
  27 H27            4.5316     6.7121    -0.0050 H       
  28 H28           -1.3184     3.1213     0.0259 H       
  29 H29            4.6867     1.7775    -0.0228 H       
  30 H30           -5.8920    -1.1332    -1.4841 H       
  31 H31           -5.3131    -2.8434     0.9683 H       
  32 H32           -5.1424    -3.2792    -0.7652 H       
  33 H33            6.7737     3.0773    -0.0349 H       
  34 H34           -4.7320    -0.5886     2.1324 H       
  35 H35           -4.7436     1.1548     1.7144 H       
  36 H36           -7.0642    -0.0508     2.3910 H       
  37 H37           -7.0427     1.0815     0.9992 H       
  38 H38           -7.8145    -0.7863    -0.1920 H       
  39 H39           -7.1551    -1.9387     1.0075 H       
@<TRIPOS>BOND
   1    1    2 ar
   2    1    6 1
   3    1   12 ar
   4    2    3 ar
   5    2   25 1
   6    3    4 ar
   7    4   11 ar
   8    4    5 1
   9    5   15 1
  10    5   18 am
  11    6    7 3
  12    7    8 1
  13    8    9 ar
  14    8   13 ar
  15    9   10 ar
  16    9   26 1
  17   10   14 ar
  18   10   27 1
  19   11   12 ar
  20   12   28 1
  21   13   19 ar
  22   13   29 1
  23   14   24 1
  24   14   19 ar
  25   15   21 1
  26   15   16 1
  27   16   17 1
  28   16   23 1
  29   16   30 1
  30   17   18 1
  31   17   31 1
  32   17   32 1
  33   18   20 2
  34   19   33 1
  35   21   22 1
  36   21   34 1
  37   21   35 1
  38   22   23 1
  39   22   36 1
  40   22   37 1
  41   23   38 1
  42   23   39 1

#	End of record

