#	Name: ASD00890005
#	Creating user name:	WinNT
#	Creation time:	15. 06. 2019 18:53

#	Modifying user name:	WinNT
#	Modification time:	15. 06. 2019 18:53

#	Program:	/corina/corina34_cracker 3.40 0067  02.08.2006

@<TRIPOS>MOLECULE
ASD00890005
  50   53    0    0    0
SMALL
NO_CHARGES


@<TRIPOS>ATOM
   1 C1             0.2240     1.2003    -0.1973 C.ar    
   2 C2             0.3323    -0.1741    -0.3116 C.ar    
   3 C3             1.5757    -0.7653    -0.4065 C.ar    
   4 C4             2.7231     0.0247    -0.3875 C.ar    
   5 C5             2.6084     1.4080    -0.2727 C.ar    
   6 C6             1.3598     1.9891    -0.1779 C.ar    
   7 S7             1.2128     3.7390    -0.0332 S.o2    
   8 O8            -0.0440     3.9866     0.5820 O.2     
   9 O9             2.4449     4.2022     0.5022 O.2     
  10 N10            1.1105     4.3510    -1.5686 N.am    
  11 C11            4.0635    -0.6058    -0.4887 C.2     
  12 C12            4.3197    -1.9409    -0.6046 C.2     
  13 N13            5.6576    -2.0954    -0.6679 N.pl3   
  14 N14            6.2486    -0.8286    -0.5897 N.2     
  15 C15            5.3014     0.0659    -0.4887 C.2     
  16 C16            6.3700    -3.3692    -0.7959 C.3     
  17 C17            7.2814    -3.3167    -1.9949 C.ar    
  18 C18            8.5817    -2.8685    -1.8556 C.ar    
  19 C19            9.4177    -2.8203    -2.9554 C.ar    
  20 C20            8.9537    -3.2208    -4.1944 C.ar    
  21 C21            7.6537    -3.6699    -4.3336 C.ar    
  22 C22            6.8190    -3.7221    -3.2329 C.ar    
  23 C23            0.0680     3.9667    -2.4010 C.ar    
  24 C24           -1.1962     3.7369    -1.8752 C.ar    
  25 C25           -2.2325     3.3543    -2.7064 C.ar    
  26 C26           -2.0180     3.1967    -4.0700 C.ar    
  27 C27           -0.7712     3.4200    -4.6077 C.ar    
  28 C28            0.2856     3.8140    -3.7805 C.ar    
  29 C29            1.6211     4.0547    -4.3500 C.2     
  30 O30            1.8286     3.8955    -5.6722 O.3     
  31 O31            2.5370     4.3970    -3.6280 O.2     
  32 F32           -3.4608     3.1319    -2.1896 F       
  33 H33           -0.7511     1.6593    -0.1275 H       
  34 H34           -0.5579    -0.7856    -0.3263 H       
  35 H35            1.6591    -1.8384    -0.4950 H       
  36 H36            3.4947     2.0249    -0.2571 H       
  37 H37            1.7790     4.9779    -1.8863 H       
  38 H38            3.5841    -2.7308    -0.6394 H       
  39 H39            5.4434     1.1337    -0.4108 H       
  40 H40            6.9612    -3.5466     0.1024 H       
  41 H41            5.6496    -4.1773    -0.9223 H       
  42 H42            8.9442    -2.5556    -0.8876 H       
  43 H43           10.4333    -2.4694    -2.8467 H       
  44 H44            9.6066    -3.1825    -5.0538 H       
  45 H45            7.2911    -3.9824    -5.3016 H       
  46 H46            5.8034    -4.0730    -3.3416 H       
  47 H47           -1.3701     3.8567    -0.8161 H       
  48 H48           -2.8339     2.8972    -4.7111 H       
  49 H49           -0.6098     3.2953    -5.6683 H       
  50 H50            2.7224     4.0651    -5.9999 H       
@<TRIPOS>BOND
   1    1    2 ar
   2    1    6 ar
   3    1   33 1
   4    2    3 ar
   5    2   34 1
   6    3    4 ar
   7    3   35 1
   8    4    5 ar
   9    4   11 1
  10    5    6 ar
  11    5   36 1
  12    6    7 1
  13    7    8 2
  14    7    9 2
  15    7   10 am
  16   10   23 1
  17   10   37 1
  18   11   12 2
  19   11   15 1
  20   12   13 1
  21   12   38 1
  22   13   14 1
  23   13   16 1
  24   14   15 2
  25   15   39 1
  26   16   17 1
  27   16   40 1
  28   16   41 1
  29   17   18 ar
  30   17   22 ar
  31   18   19 ar
  32   18   42 1
  33   19   20 ar
  34   19   43 1
  35   20   21 ar
  36   20   44 1
  37   21   22 ar
  38   21   45 1
  39   22   46 1
  40   23   24 ar
  41   23   28 ar
  42   24   25 ar
  43   24   47 1
  44   25   26 ar
  45   25   32 1
  46   26   27 ar
  47   26   48 1
  48   27   28 ar
  49   27   49 1
  50   28   29 1
  51   29   30 1
  52   29   31 2
  53   30   50 1

#	End of record

