#	Name: ASD01152586
#	Creating user name:	WinNT
#	Creation time:	15. 06. 2019 19:06

#	Modifying user name:	WinNT
#	Modification time:	15. 06. 2019 19:06

#	Program:	/corina/corina34_cracker 3.40 0067  02.08.2006

@<TRIPOS>MOLECULE
ASD01152586
  53   55    0    0    0
SMALL
NO_CHARGES


@<TRIPOS>ATOM
   1 C1            -0.7174     1.4309    -0.5849 C.2     
   2 N2            -0.5248     0.1532    -0.3931 N.2     
   3 N3            -1.5844    -0.7537    -0.3915 N.am    
   4 C4            -2.8696    -0.3632    -0.3732 C.2     
   5 C5            -3.2198     1.0992    -0.2295 C.3     
   6 C6            -2.0879     1.9086    -0.8229 C.2     
   7 C7            -3.3806     1.4504     1.2509 C.3     
   8 O8            -2.3012     2.9092    -1.4759 O.2     
   9 O9             0.3259     2.3013    -0.5595 O.3     
  10 C10           -1.2976    -2.1238    -0.4101 C.ar    
  11 O11           -3.7526    -1.1883    -0.4729 O.2     
  12 C12           -3.8490     2.8769     1.3808 C.ar    
  13 C13           -0.3878    -2.6303    -1.3278 C.ar    
  14 C14           -1.9192    -2.9764     0.4938 C.ar    
  15 C15           -1.6371    -4.3287     0.4767 C.ar    
  16 C16           -0.7352    -4.8382    -0.4404 C.ar    
  17 C17           -0.1058    -3.9882    -1.3437 C.ar    
  18 C18           -5.2019     3.1602     1.4045 C.ar    
  19 C19           -2.9254     3.9006     1.4818 C.ar    
  20 C20           -3.3537     5.2091     1.6009 C.ar    
  21 C21           -5.6325     4.4680     1.5236 C.ar    
  22 C22           -4.7084     5.4946     1.6191 C.ar    
  23 F23           -5.1283     6.7734     1.7359 F       
  24 C24            1.6226     1.7526    -0.3157 C.3     
  25 C25            2.6614     2.8759    -0.3238 C.3     
  26 O26            2.4139     3.7614     0.7701 O.3     
  27 F27           -0.4611    -6.1610    -0.4544 F       
  28 C28            3.3333     4.8521     0.8544 C.3     
  29 N29            0.8112    -4.5030    -2.2686 N.am    
  30 C30            1.1183    -3.7993    -3.3763 C.2     
  31 O31            0.5262    -2.7702    -3.6245 O.2     
  32 C32            2.1972    -4.2909    -4.3064 C.3     
  33 H33           -4.1466     1.3109    -0.7626 H       
  34 H34           -4.1145     0.7843     1.7047 H       
  35 H35           -2.4226     1.3349     1.7579 H       
  36 H36            0.0993    -1.9684    -2.0284 H       
  37 H37           -2.6234    -2.5814     1.2110 H       
  38 H38           -2.1214    -4.9893     1.1806 H       
  39 H39           -5.9225     2.3593     1.3296 H       
  40 H40           -1.8688     3.6776     1.4679 H       
  41 H41           -2.6320     6.0087     1.6802 H       
  42 H42           -6.6895     4.6890     1.5424 H       
  43 H43            1.6309     1.2570     0.6551 H       
  44 H44            1.8635     1.0294    -1.0949 H       
  45 H45            3.6594     2.4485    -0.2267 H       
  46 H46            2.5923     3.4280    -1.2610 H       
  47 H47            4.3452     4.4658     0.9760 H       
  48 H48            3.2781     5.4453    -0.0584 H       
  49 H49            3.0778     5.4773     1.7100 H       
  50 H50            1.2254    -5.3660    -2.1120 H       
  51 H51            1.7567    -4.9409    -5.0625 H       
  52 H52            2.6739    -3.4396    -4.7922 H       
  53 H53            2.9414    -4.8481    -3.7373 H       
@<TRIPOS>BOND
   1    1    2 2
   2    1    9 1
   3    1    6 1
   4    2    3 1
   5    3    4 am
   6    3   10 1
   7    4    5 1
   8    4   11 2
   9    5    6 1
  10    5    7 1
  11    5   33 1
  12    6    8 2
  13    7   12 1
  14    7   34 1
  15    7   35 1
  16    9   24 1
  17   10   13 ar
  18   10   14 ar
  19   12   18 ar
  20   12   19 ar
  21   13   17 ar
  22   13   36 1
  23   14   15 ar
  24   14   37 1
  25   15   16 ar
  26   15   38 1
  27   16   17 ar
  28   16   27 1
  29   17   29 1
  30   18   21 ar
  31   18   39 1
  32   19   20 ar
  33   19   40 1
  34   20   22 ar
  35   20   41 1
  36   21   22 ar
  37   21   42 1
  38   22   23 1
  39   24   25 1
  40   24   43 1
  41   24   44 1
  42   25   26 1
  43   25   45 1
  44   25   46 1
  45   26   28 1
  46   28   47 1
  47   28   48 1
  48   28   49 1
  49   29   30 am
  50   29   50 1
  51   30   31 2
  52   30   32 1
  53   32   51 1
  54   32   52 1
  55   32   53 1

#	End of record

