#	Name: ASD01911681
#	Creating user name:	WinNT
#	Creation time:	15. 06. 2019 19:58

#	Modifying user name:	WinNT
#	Modification time:	15. 06. 2019 19:58

#	Program:	/corina/corina34_cracker 3.40 0067  02.08.2006

@<TRIPOS>MOLECULE
ASD01911681
  46   49    0    0    0
SMALL
NO_CHARGES


@<TRIPOS>ATOM
   1 N1            -0.0162     1.3436     0.0094 N.am    
   2 C2             0.0021    -0.0041     0.0020 C.2     
   3 C3             1.2807    -0.7193    -0.0146 C.2     
   4 C4             1.4422    -2.0785    -0.0235 C.2     
   5 S5             2.8808     0.0195    -0.0343 S.3     
   6 C6             3.6174    -1.5803    -0.0457 C.2     
   7 N7             2.6774    -2.4926    -0.0388 N.2     
   8 C8             5.0250    -1.8428    -0.0646 C.1     
   9 C9             6.1790    -2.0581    -0.0801 C.1     
  10 C10            7.5866    -2.3206    -0.0989 C.ar    
  11 C11            8.0557    -3.6378    -0.1065 C.ar    
  12 C12            9.4126    -3.8825    -0.1252 C.ar    
  13 C13           10.3094    -2.8284    -0.1359 C.ar    
  14 C14            9.8528    -1.5220    -0.1285 C.ar    
  15 C15            8.4988    -1.2611    -0.1157 C.ar    
  16 O16           -1.0436    -0.6269     0.0091 O.2     
  17 C17           -1.2256     2.1863     0.0319 C.3     
  18 C18            1.1667     2.2166     0.0028 C.3     
  19 C19            0.6608     3.6740     0.0437 C.3     
  20 C20           -0.7607     3.5307     0.6452 C.3     
  21 N21           -1.6292     4.6336     0.2124 N.3     
  22 C22           -2.9812     4.4973     0.7846 C.3     
  23 C23           -3.2792     5.7933     1.5675 C.3     
  24 C24           -2.3113     6.8208     0.9237 C.3     
  25 C25           -1.0728     5.9396     0.6253 C.3     
  26 H26            0.6044    -2.7600    -0.0179 H       
  27 H27            7.3571    -4.4613    -0.0975 H       
  28 H28            9.7765    -4.8993    -0.1311 H       
  29 H29           11.3710    -3.0265    -0.1498 H       
  30 H30           10.5588    -0.7047    -0.1366 H       
  31 H31            8.1440    -0.2411    -0.1098 H       
  32 H32           -1.5996     2.3403    -0.9802 H       
  33 H33           -1.9942     1.7303     0.6560 H       
  34 H34            1.7824     2.0132     0.8790 H       
  35 H35            1.7451     2.0503    -0.9060 H       
  36 H36            1.2916     4.2831     0.6911 H       
  37 H37            0.6167     4.0952    -0.9607 H       
  38 H38           -0.7205     3.4710     1.7328 H       
  39 H39           -3.7112     4.3709    -0.0149 H       
  40 H40           -3.0141     3.6411     1.4584 H       
  41 H41           -4.3157     6.0993     1.4262 H       
  42 H42           -3.0553     5.6640     2.6264 H       
  43 H43           -2.7306     7.2292     0.0042 H       
  44 H44           -2.0639     7.6171     1.6257 H       
  45 H45           -0.4630     5.8260     1.5216 H       
  46 H46           -0.4839     6.3738    -0.1827 H       
@<TRIPOS>BOND
   1    1    2 am
   2    1   18 1
   3    1   17 1
   4    2    3 1
   5    2   16 2
   6    3    4 2
   7    3    5 1
   8    4    7 1
   9    4   26 1
  10    5    6 1
  11    6    7 2
  12    6    8 1
  13    8    9 3
  14    9   10 1
  15   10   11 ar
  16   10   15 ar
  17   11   12 ar
  18   11   27 1
  19   12   13 ar
  20   12   28 1
  21   13   14 ar
  22   13   29 1
  23   14   15 ar
  24   14   30 1
  25   15   31 1
  26   17   20 1
  27   17   32 1
  28   17   33 1
  29   18   19 1
  30   18   34 1
  31   18   35 1
  32   19   20 1
  33   19   36 1
  34   19   37 1
  35   20   21 1
  36   20   38 1
  37   21   22 1
  38   21   25 1
  39   22   23 1
  40   22   39 1
  41   22   40 1
  42   23   24 1
  43   23   41 1
  44   23   42 1
  45   24   25 1
  46   24   43 1
  47   24   44 1
  48   25   45 1
  49   25   46 1

#	End of record

