#	Name: ASD01901379
#	Creating user name:	WinNT
#	Creation time:	15. 06. 2019 19:53

#	Modifying user name:	WinNT
#	Modification time:	15. 06. 2019 19:53

#	Program:	/corina/corina34_cracker 3.40 0067  02.08.2006

@<TRIPOS>MOLECULE
ASD01901379
  43   46    0    0    0
SMALL
NO_CHARGES


@<TRIPOS>ATOM
   1 C1            -0.0169     1.3956     0.0097 C.ar    
   2 C2             1.1781     2.0998     0.0021 C.ar    
   3 C3             2.3815     1.4204    -0.0131 C.ar    
   4 C4             2.4024     0.0371    -0.0207 C.ar    
   5 C5             1.2205    -0.6770    -0.0132 C.ar    
   6 C6             0.0021    -0.0041     0.0020 C.ar    
   7 C7            -1.2705    -0.7668     0.0106 C.2     
   8 N8            -3.1784    -1.5386    -1.1468 N.2     
   9 C9            -2.0553    -0.8633    -1.1593 C.2     
  10 C10           -1.6971    -1.3908     1.1496 C.2     
  11 N11           -2.8713    -2.0839     1.1227 N.pl3   
  12 C12           -3.6074    -2.1496    -0.0322 C.2     
  13 C13           -3.5479    -2.7977     2.0747 C.2     
  14 C14           -4.6664    -3.2774     1.4905 C.2     
  15 N15           -4.6884    -2.8753     0.2163 N.2     
  16 C16           -5.7157    -4.1243     2.1633 C.3     
  17 O17           -5.3467    -4.3465     3.5259 O.3     
  18 C18           -6.1925    -5.0979     4.2797 C.ar    
  19 C19           -7.3501    -5.6151     3.7172 C.ar    
  20 C20           -5.8957    -5.3529     5.6104 C.ar    
  21 C21           -6.7558    -6.1171     6.3751 C.ar    
  22 C22           -7.9134    -6.6287     5.8136 C.ar    
  23 C23           -8.2085    -6.3790     4.4842 C.ar    
  24 F24           -8.7532    -7.3766     6.5624 F       
  25 N25           -1.2331     2.0797     0.0308 N.pl3   
  26 C26            3.6771     2.1901    -0.0218 C.3     
  27 H27            1.1681     3.1798     0.0076 H       
  28 H28            3.3470    -0.4864    -0.0329 H       
  29 H29            1.2415    -1.7567    -0.0196 H       
  30 H30           -1.7290    -0.3786    -2.0676 H       
  31 H31           -1.1131    -1.3361     2.0565 H       
  32 H32           -3.2439    -2.9491     3.0999 H       
  33 H33           -6.6762    -3.6104     2.1262 H       
  34 H34           -5.7955    -5.0814     1.6479 H       
  35 H35           -7.5805    -5.4204     2.6801 H       
  36 H36           -4.9925    -4.9546     6.0484 H       
  37 H37           -6.5250    -6.3158     7.4113 H       
  38 H38           -9.1099    -6.7818     4.0464 H       
  39 H39           -2.0676     1.5852     0.0402 H       
  40 H40           -1.2440     3.0496     0.0361 H       
  41 H41            3.9995     2.3704     1.0037 H       
  42 H42            4.4389     1.6130    -0.5460 H       
  43 H43            3.5300     3.1434    -0.5294 H       
@<TRIPOS>BOND
   1    1    6 ar
   2    1    2 ar
   3    1   25 1
   4    2    3 ar
   5    2   27 1
   6    3    4 ar
   7    3   26 1
   8    4    5 ar
   9    4   28 1
  10    5    6 ar
  11    5   29 1
  12    6    7 1
  13    7   10 2
  14    7    9 1
  15    8    9 2
  16    8   12 1
  17    9   30 1
  18   10   11 1
  19   10   31 1
  20   11   13 1
  21   11   12 1
  22   12   15 2
  23   13   14 2
  24   13   32 1
  25   14   15 1
  26   14   16 1
  27   16   17 1
  28   16   33 1
  29   16   34 1
  30   17   18 1
  31   18   20 ar
  32   18   19 ar
  33   19   23 ar
  34   19   35 1
  35   20   21 ar
  36   20   36 1
  37   21   22 ar
  38   21   37 1
  39   22   23 ar
  40   22   24 1
  41   23   38 1
  42   25   39 1
  43   25   40 1
  44   26   41 1
  45   26   42 1
  46   26   43 1

#	End of record

