#	Name: ASD01152198
#	Creating user name:	WinNT
#	Creation time:	15. 06. 2019 19:05

#	Modifying user name:	WinNT
#	Modification time:	15. 06. 2019 19:05

#	Program:	/corina/corina34_cracker 3.40 0067  02.08.2006

@<TRIPOS>MOLECULE
ASD01152198
  29   30    0    0    0
SMALL
NO_CHARGES


@<TRIPOS>ATOM
   1 C1            -0.1244     1.2034    -0.2850 C.ar    
   2 C2             0.0212    -0.1477    -0.0376 C.ar    
   3 C3             1.2672    -0.6695     0.2540 C.ar    
   4 C4             2.3778     0.1637     0.2986 C.ar    
   5 C5             2.2352     1.5214     0.0502 C.ar    
   6 C6             0.9826     2.0425    -0.2418 C.ar    
   7 N7             0.8346     3.4108    -0.4934 N.am    
   8 N8             0.1821     3.7783    -1.5369 N.2     
   9 C9             0.0133     5.0519    -1.8197 C.2     
  10 C10            0.5909     6.0611    -0.9103 C.2     
  11 N11            1.2685     5.6160     0.1739 N.am    
  12 O12            0.4630     7.2511    -1.1278 O.2     
  13 C13            1.3755     4.2862     0.3683 C.2     
  14 O14            1.9810     3.8721     1.3376 O.2     
  15 N15            3.6389    -0.3655     0.5944 N.am    
  16 C16            3.9732    -1.5955     0.1563 C.2     
  17 O17            3.1529    -2.2772    -0.4211 O.2     
  18 C18            5.3661    -2.1236     0.3840 C.3     
  19 C19           -0.7155     5.4511    -2.9859 C.1     
  20 N20           -1.2937     5.7677    -3.9111 N.1     
  21 H21           -1.0989     1.6074    -0.5166 H       
  22 H22           -0.8406    -0.7977    -0.0717 H       
  23 H23            1.3776    -1.7262     0.4476 H       
  24 H24            3.0971     2.1713     0.0847 H       
  25 H25            1.6661     6.2412     0.7999 H       
  26 H26            4.2725     0.1529     1.1147 H       
  27 H27            5.5703    -2.1607     1.4540 H       
  28 H28            5.4478    -3.1260    -0.0365 H       
  29 H29            6.0877    -1.4662    -0.1010 H       
@<TRIPOS>BOND
   1    1    2 ar
   2    1    6 ar
   3    1   21 1
   4    2    3 ar
   5    2   22 1
   6    3    4 ar
   7    3   23 1
   8    4    5 ar
   9    4   15 1
  10    5    6 ar
  11    5   24 1
  12    6    7 1
  13    7    8 1
  14    7   13 am
  15    8    9 2
  16    9   10 1
  17    9   19 1
  18   10   11 am
  19   10   12 2
  20   11   13 am
  21   11   25 1
  22   13   14 2
  23   15   16 am
  24   15   26 1
  25   16   17 2
  26   16   18 1
  27   18   27 1
  28   18   28 1
  29   18   29 1
  30   19   20 3

#	End of record

