#	Name: ASD01882399
#	Creating user name:	WinNT
#	Creation time:	15. 06. 2019 19:44

#	Modifying user name:	WinNT
#	Modification time:	15. 06. 2019 19:44

#	Program:	/corina/corina34_cracker 3.40 0067  02.08.2006

@<TRIPOS>MOLECULE
ASD01882399
  54   58    0    0    0
SMALL
NO_CHARGES


@<TRIPOS>ATOM
   1 N1            -0.0902     1.3470     0.0866 N.pl3   
   2 C2            -0.1444    -0.1176     0.1905 C.3     
   3 C3             0.7261    -0.5607     1.3706 C.3     
   4 C4             2.1375     0.0054     1.1991 C.3     
   5 C5             2.0780     1.5347     1.1903 C.3     
   6 C6             1.2228     2.0016     0.0081 C.3     
   7 N7             2.9817    -0.4437     2.3090 N.pl3   
   8 C8             4.3683    -0.5229     2.1453 C.ar    
   9 C9             5.1715    -0.9492     3.1981 C.ar    
  10 C10            6.5417    -1.0259     3.0319 C.ar    
  11 C11            7.1131    -0.6788     1.8208 C.ar    
  12 C12            6.3169    -0.2550     0.7734 C.ar    
  13 C13            4.9458    -0.1817     0.9302 C.ar    
  14 F14            4.6135    -1.2872     4.3811 F       
  15 C15           -3.2968     2.7631    -1.0077 C.2     
  16 C16           -2.1212     1.9932    -1.0012 C.2     
  17 C17           -1.2605     2.0995     0.0573 C.2     
  18 C18           -1.5676     2.9772     1.1199 C.2     
  19 C19           -2.7005     3.7060     1.0929 C.2     
  20 N20           -3.5653     3.6074     0.0422 N.pl3   
  21 N21           -5.1525     3.7345    -1.4086 N.2     
  22 N22           -4.2994     2.8860    -1.8642 N.2     
  23 C23           -4.7557     4.2033    -0.2549 C.2     
  24 C24           -1.8126     1.0620    -2.1451 C.3     
  25 F25           -2.2821    -0.2205    -1.8421 F       
  26 F26           -2.4398     1.5260    -3.3064 F       
  27 F27           -0.4292     1.0162    -2.3489 F       
  28 C28           -5.4803     5.2179     0.5916 C.3     
  29 C29           -5.0241     6.6256     0.2027 C.3     
  30 C30           -5.7317     7.8070     0.8695 C.3     
  31 C31           -4.2973     7.4517     1.2659 C.3     
  32 H32           -1.1741    -0.4343     0.3567 H       
  33 H33            0.2331    -0.5634    -0.7297 H       
  34 H34            0.2953    -0.1888     2.3003 H       
  35 H35            0.7719    -1.6494     1.4003 H       
  36 H36            2.5582    -0.3470     0.2574 H       
  37 H37            1.6345     1.8869     2.1216 H       
  38 H38            3.0860     1.9374     1.0916 H       
  39 H39            1.7119     1.7286    -0.9270 H       
  40 H40            1.0953     3.0831     0.0540 H       
  41 H41            2.5789    -0.6862     3.1574 H       
  42 H42            7.1666    -1.3566     3.8483 H       
  43 H43            8.1839    -0.7389     1.6935 H       
  44 H44            6.7667     0.0151    -0.1706 H       
  45 H45            4.3247     0.1454     0.1095 H       
  46 H46           -0.8918     3.0645     1.9578 H       
  47 H47           -2.9262     4.3745     1.9106 H       
  48 H48           -6.5542     5.1262     0.4292 H       
  49 H49           -5.2554     5.0407     1.6433 H       
  50 H50           -4.7079     6.7479    -0.8332 H       
  51 H51           -5.8807     8.7066     0.2723 H       
  52 H52           -6.5222     7.5813     1.5852 H       
  53 H53           -4.1442     6.9922     2.2424 H       
  54 H54           -3.5026     8.1175     0.9296 H       
@<TRIPOS>BOND
   1    1    2 1
   2    1    6 1
   3    1   17 1
   4    2    3 1
   5    2   32 1
   6    2   33 1
   7    3    4 1
   8    3   34 1
   9    3   35 1
  10    4    5 1
  11    4    7 1
  12    4   36 1
  13    5    6 1
  14    5   37 1
  15    5   38 1
  16    6   39 1
  17    6   40 1
  18    7    8 1
  19    7   41 1
  20    8    9 ar
  21    8   13 ar
  22    9   10 ar
  23    9   14 1
  24   10   11 ar
  25   10   42 1
  26   11   12 ar
  27   11   43 1
  28   12   13 ar
  29   12   44 1
  30   13   45 1
  31   15   16 1
  32   15   20 1
  33   15   22 2
  34   16   17 2
  35   16   24 1
  36   17   18 1
  37   18   19 2
  38   18   46 1
  39   19   20 1
  40   19   47 1
  41   20   23 1
  42   21   22 1
  43   21   23 2
  44   23   28 1
  45   24   25 1
  46   24   26 1
  47   24   27 1
  48   28   29 1
  49   28   48 1
  50   28   49 1
  51   29   30 1
  52   29   31 1
  53   29   50 1
  54   30   31 1
  55   30   51 1
  56   30   52 1
  57   31   53 1
  58   31   54 1

#	End of record

