#	Name: ASD01913967
#	Creating user name:	WinNT
#	Creation time:	15. 06. 2019 20:02

#	Modifying user name:	WinNT
#	Modification time:	15. 06. 2019 20:02

#	Program:	/corina/corina34_cracker 3.40 0067  02.08.2006

@<TRIPOS>MOLECULE
ASD01913967
  42   45    0    0    0
SMALL
NO_CHARGES


@<TRIPOS>ATOM
   1 C1             0.0501     1.5351    -0.0380 C.ar    
   2 C2             0.0168     0.1524    -0.0456 C.ar    
   3 N3             1.1304    -0.5560    -0.0336 N.ar    
   4 C4             2.3148     0.0262    -0.0126 C.ar    
   5 C5             2.4298     1.4303    -0.0305 C.ar    
   6 C6             1.2719     2.1931    -0.0312 C.ar    
   7 C7             3.5766    -0.7364     0.0400 C.2     
   8 C8             4.7737    -0.0965     0.2786 C.2     
   9 C9             4.8646     1.3837     0.5243 C.3     
  10 N10            3.6897     2.0299    -0.0815 N.am    
  11 N11            3.8540    -2.0467    -0.1104 N.pl3   
  12 N12            5.1258    -2.2380     0.0019 N.2     
  13 C13            5.7493    -1.0931     0.2380 C.2     
  14 C14            7.2029    -0.9067     0.4224 C.2     
  15 C15            2.8623    -3.0953    -0.3623 C.3     
  16 N16            8.0320    -1.9672     0.3562 N.am    
  17 C17            9.4107    -1.7789     0.4242 C.ar    
  18 N18            9.9039    -0.5508     0.4576 N.ar    
  19 C19           11.2036    -0.3284     0.5225 C.ar    
  20 C20           12.1011    -1.3794     0.5580 C.ar    
  21 C21           11.6233    -2.6819     0.5247 C.ar    
  22 C22           10.2555    -2.8824     0.4620 C.ar    
  23 O23            7.6514     0.2032     0.6340 O.2     
  24 Cl24          11.7931     1.3040     0.5632 Cl      
  25 O25            2.8942     3.7151    -1.2854 O.2     
  26 C26            3.8321     3.2208    -0.6961 C.2     
  27 C27            5.1565     3.9384    -0.6511 C.3     
  28 H28           -0.8704     2.1000    -0.0418 H       
  29 H29           -0.9359    -0.3559    -0.0613 H       
  30 H30            1.3197     3.2721    -0.0273 H       
  31 H31            4.8766     1.5769     1.5970 H       
  32 H32            5.7739     1.7755     0.0684 H       
  33 H33            2.7261    -3.2160    -1.4370 H       
  34 H34            3.2097    -4.0348     0.0677 H       
  35 H35            1.9134    -2.8154     0.0951 H       
  36 H36            7.6688    -2.8616     0.2612 H       
  37 H37           13.1628    -1.1887     0.6107 H       
  38 H38           12.3036    -3.5203     0.5509 H       
  39 H39            9.8499    -3.8830     0.4351 H       
  40 H40            5.7300     3.6991    -1.5466 H       
  41 H41            4.9857     5.0140    -0.6058 H       
  42 H42            5.7118     3.6212     0.2315 H       
@<TRIPOS>BOND
   1    1    2 ar
   2    1    6 ar
   3    1   28 1
   4    2    3 ar
   5    2   29 1
   6    3    4 ar
   7    4    5 ar
   8    4    7 1
   9    5    6 ar
  10    5   10 1
  11    6   30 1
  12    7    8 2
  13    7   11 1
  14    8    9 1
  15    8   13 1
  16    9   10 1
  17    9   31 1
  18    9   32 1
  19   10   26 am
  20   11   12 1
  21   11   15 1
  22   12   13 2
  23   13   14 1
  24   14   16 am
  25   14   23 2
  26   15   33 1
  27   15   34 1
  28   15   35 1
  29   16   17 1
  30   16   36 1
  31   17   18 ar
  32   17   22 ar
  33   18   19 ar
  34   19   20 ar
  35   19   24 1
  36   20   21 ar
  37   20   37 1
  38   21   22 ar
  39   21   38 1
  40   22   39 1
  41   25   26 2
  42   26   27 1
  43   27   40 1
  44   27   41 1
  45   27   42 1

#	End of record

