#	Name: ASD01884613
#	Creating user name:	WinNT
#	Creation time:	15. 06. 2019 19:48

#	Modifying user name:	WinNT
#	Modification time:	15. 06. 2019 19:48

#	Program:	/corina/corina34_cracker 3.40 0067  02.08.2006

@<TRIPOS>MOLECULE
ASD01884613
  40   42    0    0    0
SMALL
NO_CHARGES


@<TRIPOS>ATOM
   1 C1            -0.0164     1.3569     0.0095 C.2     
   2 C2             0.0021    -0.0041     0.0020 C.2     
   3 C3             1.2464    -0.6738    -0.0135 C.2     
   4 C4             2.4117     0.0590    -0.0207 C.2     
   5 N5             2.3718     1.4078    -0.0126 N.am    
   6 C6             1.1983     2.0660     0.0017 C.2     
   7 O7             1.1878     3.2861     0.0088 O.2     
   8 C8             3.6248     2.1668    -0.0200 C.3     
   9 C9             1.2965    -2.1543    -0.0214 C.ar    
  10 C10            4.0412     2.4352    -1.4433 C.ar    
  11 C11            3.6116     3.5822    -2.0836 C.ar    
  12 C12            3.9918     3.8304    -3.3894 C.ar    
  13 C13            4.8037     2.9302    -4.0566 C.ar    
  14 C14            5.2351     1.7794    -3.4139 C.ar    
  15 C15            4.8570     1.5365    -2.1052 C.ar    
  16 F16            5.1753     3.1718    -5.3328 F       
  17 C17            0.8197    -2.8738     1.0762 C.ar    
  18 C18            0.8652    -4.2386     1.0713 C.ar    
  19 C19            1.3903    -4.9167    -0.0360 C.ar    
  20 C20            1.8675    -4.1929    -1.1361 C.ar    
  21 C21            1.8151    -2.8283    -1.1289 C.ar    
  22 F22            6.0276     0.8988    -4.0634 F       
  23 C23            1.4408    -6.3847    -0.0435 C.2     
  24 C24            2.0060    -7.1131    -1.2356 C.3     
  25 O25            1.0276    -7.0106     0.9098 O.2     
  26 H26           -0.9566     1.8882     0.0168 H       
  27 H27           -0.9213    -0.5643     0.0082 H       
  28 H28            3.3646    -0.4491    -0.0325 H       
  29 H29            3.4793     3.1133     0.5006 H       
  30 H30            4.4015     1.5909     0.4833 H       
  31 H31            2.9779     4.2853    -1.5634 H       
  32 H32            3.6549     4.7267    -3.8889 H       
  33 H33            5.1926     0.6409    -1.6035 H       
  34 H34            0.4149    -2.3505     1.9299 H       
  35 H35            0.4970    -4.7946     1.9208 H       
  36 H36            2.2728    -4.7136    -1.9910 H       
  37 H37            2.1830    -2.2697    -1.9769 H       
  38 H38            3.0774    -7.2587    -1.0979 H       
  39 H39            1.5173    -8.0824    -1.3343 H       
  40 H40            1.8320    -6.5251    -2.1367 H       
@<TRIPOS>BOND
   1    1    2 2
   2    1    6 1
   3    1   26 1
   4    2    3 1
   5    2   27 1
   6    3    4 2
   7    3    9 1
   8    4    5 1
   9    4   28 1
  10    5    6 am
  11    5    8 1
  12    6    7 2
  13    8   10 1
  14    8   29 1
  15    8   30 1
  16    9   17 ar
  17    9   21 ar
  18   10   11 ar
  19   10   15 ar
  20   11   12 ar
  21   11   31 1
  22   12   13 ar
  23   12   32 1
  24   13   14 ar
  25   13   16 1
  26   14   15 ar
  27   14   22 1
  28   15   33 1
  29   17   18 ar
  30   17   34 1
  31   18   19 ar
  32   18   35 1
  33   19   20 ar
  34   19   23 1
  35   20   21 ar
  36   20   36 1
  37   21   37 1
  38   23   24 1
  39   23   25 2
  40   24   38 1
  41   24   39 1
  42   24   40 1

#	End of record

