#	Name: ASD01940663
#	Creating user name:	WinNT
#	Creation time:	15. 06. 2019 20:12

#	Modifying user name:	WinNT
#	Modification time:	15. 06. 2019 20:12

#	Program:	/corina/corina34_cracker 3.40 0067  02.08.2006

@<TRIPOS>MOLECULE
ASD01940663
  42   44    0    0    0
SMALL
NO_CHARGES


@<TRIPOS>ATOM
   1 C1             0.6031     0.4674    -1.4393 C.ar    
   2 C2            -0.0885    -0.0410    -0.3552 C.ar    
   3 C3             0.4482     0.0503     0.9178 C.ar    
   4 C4             1.6814     0.6519     1.1112 C.ar    
   5 C5             2.3806     1.1638     0.0262 C.ar    
   6 C6             1.8381     1.0706    -1.2544 C.ar    
   7 N7             2.5396     1.5851    -2.3530 N.am    
   8 S8             1.7170     2.0809    -3.7021 S.o2    
   9 C9             0.7928     3.5434    -3.1567 C.3     
  10 O10            2.7380     2.4496    -4.6192 O.2     
  11 O11            0.8300     1.0077    -3.9859 O.2     
  12 F12           -0.2320    -0.4477     1.9735 F       
  13 F13            2.2028     0.7407     2.3543 F       
  14 N14            3.6282     1.7734     0.2184 N.pl3   
  15 C15            4.8011     1.0348     0.0426 C.ar    
  16 C16            6.0323     1.5942     0.3669 C.ar    
  17 C17            4.7399    -0.2618    -0.4510 C.ar    
  18 C18            5.9014    -0.9895    -0.6232 C.ar    
  19 C19            7.1245    -0.4288    -0.3049 C.ar    
  20 C20            7.1898     0.8604     0.1920 C.ar    
  21 Cl21           6.1147     3.2125     0.9900 Cl      
  22 C22           -0.1743     4.1811    -4.1562 C.3     
  23 C23           -0.7174     3.3929    -2.9626 C.3     
  24 C24            8.3890    -1.2265    -0.4938 C.3     
  25 C25            8.9352    -0.9903    -1.9034 C.3     
  26 H26            0.1832     0.3907    -2.4313 H       
  27 H27           -1.0501    -0.5103    -0.5018 H       
  28 H28            3.5069     1.6508    -2.3233 H       
  29 H29            1.3242     4.2085    -2.4761 H       
  30 H30            3.6771     2.7080     0.4734 H       
  31 H31            3.7850    -0.7009    -0.6997 H       
  32 H32            5.8540    -1.9980    -1.0068 H       
  33 H33            8.1468     1.2954     0.4393 H       
  34 H34           -0.2795     5.2658    -4.1328 H       
  35 H35           -0.2552     3.7219    -5.1414 H       
  36 H36           -1.1555     2.4150    -3.1626 H       
  37 H37           -1.1798     3.9589    -2.1540 H       
  38 H38            9.1304    -0.9116     0.2406 H       
  39 H39            8.1732    -2.2866    -0.3607 H       
  40 H40            8.1938    -1.3051    -2.6378 H       
  41 H41            9.1510     0.0698    -2.0365 H       
  42 H42            9.8498    -1.5672    -2.0401 H       
@<TRIPOS>BOND
   1    1    2 ar
   2    1    6 ar
   3    1   26 1
   4    2    3 ar
   5    2   27 1
   6    3    4 ar
   7    3   12 1
   8    4    5 ar
   9    4   13 1
  10    5    6 ar
  11    5   14 1
  12    6    7 1
  13    7    8 am
  14    7   28 1
  15    8    9 1
  16    8   10 2
  17    8   11 2
  18    9   22 1
  19    9   23 1
  20    9   29 1
  21   14   15 1
  22   14   30 1
  23   15   16 ar
  24   15   17 ar
  25   16   21 1
  26   16   20 ar
  27   17   18 ar
  28   17   31 1
  29   18   19 ar
  30   18   32 1
  31   19   20 ar
  32   19   24 1
  33   20   33 1
  34   22   23 1
  35   22   34 1
  36   22   35 1
  37   23   36 1
  38   23   37 1
  39   24   25 1
  40   24   38 1
  41   24   39 1
  42   25   40 1
  43   25   41 1
  44   25   42 1

#	End of record

