#	Name: ASD00960208
#	Creating user name:	WinNT
#	Creation time:	15. 06. 2019 18:53

#	Modifying user name:	WinNT
#	Modification time:	15. 06. 2019 18:53

#	Program:	/corina/corina34_cracker 3.40 0067  02.08.2006

@<TRIPOS>MOLECULE
ASD00960208
  49   52    0    0    0
SMALL
NO_CHARGES


@<TRIPOS>ATOM
   1 C1            -0.0170     1.4014     0.0097 C.2     
   2 C2             0.0021    -0.0041     0.0020 C.2     
   3 N3             1.2700     1.8423    -0.0002 N.pl3   
   4 C4             2.1106     0.7578    -0.0140 C.2     
   5 C5             1.3425    -0.3965    -0.0129 C.2     
   6 N6             1.8349     3.1261     0.0009 N.2     
   7 C7             3.1344     3.2703    -0.0111 C.2     
   8 N8             3.9609     2.2300    -0.0250 N.2     
   9 C9             3.5094     0.9875    -0.0254 C.2     
  10 N10            4.3898    -0.0740    -0.0396 N.pl3   
  11 C11           -1.1736    -0.8974     0.0089 C.2     
  12 N12           -1.0040    -2.2344     0.0000 N.am    
  13 O13           -2.2945    -0.4269     0.0225 O.2     
  14 C14           -2.1704    -3.1208     0.0068 C.3     
  15 C15           -1.7109    -4.5560    -0.0054 C.ar    
  16 C16           -1.4882    -5.2206     1.1860 C.ar    
  17 C17           -1.5174    -5.2095    -1.2081 C.ar    
  18 C18           -1.0958    -6.5260    -1.2193 C.ar    
  19 C19           -0.8673    -7.1887    -0.0279 C.ar    
  20 C20           -1.0666    -6.5370     1.1748 C.ar    
  21 C21           -1.2126     2.2434     0.0202 C.2     
  22 O22           -2.3166     1.7323     0.0228 O.2     
  23 O23           -1.0913     3.5874     0.0269 O.3     
  24 C24           -2.3011     4.3479     0.0370 C.3     
  25 C25           -1.9702     5.8181     0.0433 C.ar    
  26 C26           -1.8243     6.4989    -1.1509 C.ar    
  27 C27           -1.5207     7.8475    -1.1450 C.ar    
  28 C28           -1.3634     8.5153     0.0550 C.ar    
  29 C29           -1.5102     7.8347     1.2492 C.ar    
  30 C30           -1.8181     6.4871     1.2434 C.ar    
  31 H31            1.7122    -1.4112    -0.0215 H       
  32 H32            3.5495     4.2674    -0.0100 H       
  33 H33            5.3460     0.0891    -0.0493 H       
  34 H34            4.0529    -0.9836    -0.0398 H       
  35 H35           -0.1097    -2.6099    -0.0109 H       
  36 H36           -2.7618    -2.9363     0.9037 H       
  37 H37           -2.7794    -2.9267    -0.8762 H       
  38 H38           -1.6433    -4.7113     2.1257 H       
  39 H39           -1.6959    -4.6917    -2.1389 H       
  40 H40           -0.9453    -7.0368    -2.1589 H       
  41 H41           -0.5383    -8.2174    -0.0367 H       
  42 H42           -0.8882    -7.0549     2.1056 H       
  43 H43           -2.8866     4.1111    -0.8514 H       
  44 H44           -2.8778     4.1014     0.9285 H       
  45 H45           -1.9472     5.9771    -2.0884 H       
  46 H46           -1.4060     8.3792    -2.0780 H       
  47 H47           -1.1255     9.5688     0.0596 H       
  48 H48           -1.3870     8.3565     2.1868 H       
  49 H49           -1.9365     5.9562     2.1764 H       
@<TRIPOS>BOND
   1    1    2 2
   2    1    3 1
   3    1   21 1
   4    2   11 1
   5    2    5 1
   6    3    4 1
   7    3    6 1
   8    4    5 2
   9    4    9 1
  10    5   31 1
  11    6    7 2
  12    7    8 1
  13    7   32 1
  14    8    9 2
  15    9   10 1
  16   10   33 1
  17   10   34 1
  18   11   12 am
  19   11   13 2
  20   12   14 1
  21   12   35 1
  22   14   15 1
  23   14   36 1
  24   14   37 1
  25   15   16 ar
  26   15   17 ar
  27   16   20 ar
  28   16   38 1
  29   17   18 ar
  30   17   39 1
  31   18   19 ar
  32   18   40 1
  33   19   20 ar
  34   19   41 1
  35   20   42 1
  36   21   22 2
  37   21   23 1
  38   23   24 1
  39   24   25 1
  40   24   43 1
  41   24   44 1
  42   25   26 ar
  43   25   30 ar
  44   26   27 ar
  45   26   45 1
  46   27   28 ar
  47   27   46 1
  48   28   29 ar
  49   28   47 1
  50   29   30 ar
  51   29   48 1
  52   30   49 1

#	End of record

