#	Name: ASD09080056
#	Creating user name:	WinNT
#	Creation time:	15. 06. 2019 21:20

#	Modifying user name:	WinNT
#	Modification time:	15. 06. 2019 21:20

#	Program:	/corina/corina34_cracker 3.40 0067  02.08.2006

@<TRIPOS>MOLECULE
ASD09080056
  54   55    0    0    0
SMALL
NO_CHARGES


@<TRIPOS>ATOM
   1 N1            -0.0178     1.4648     0.0101 N.3     
   2 C2            -3.5230    -3.6766     2.9933 C.ar    
   3 C3            -2.9265    -4.2297     4.1082 C.ar    
   4 C4            -1.8715    -3.5668     4.7318 C.ar    
   5 C5            -1.4246    -2.3480     4.2255 C.ar    
   6 C6            -2.0285    -1.8040     3.1100 C.ar    
   7 C7            -3.0755    -2.4664     2.4949 C.ar    
   8 C8            -3.7305    -1.8676     1.2770 C.3     
   9 C9            -3.0144    -2.3611     0.0182 C.3     
  10 C10           -3.7544    -1.8542    -1.2214 C.3     
  11 N11           -1.6400    -1.8540     0.0078 N.am    
  12 C12           -3.0383    -2.3476    -2.4802 C.3     
  13 O13           -2.9159    -3.7706    -2.4317 O.3     
  14 O14           -5.0950    -2.3488    -1.2112 O.3     
  15 C15           -1.4117    -0.5257     0.0127 C.2     
  16 C16            0.0021    -0.0041     0.0020 C.3     
  17 O17           -2.3441     0.2498     0.0258 O.2     
  18 C18           -1.2264    -4.1564     5.9312 C.ar    
  19 C19           -0.1715    -3.4933     6.5545 C.ar    
  20 C20            0.4257    -4.0463     7.6707 C.ar    
  21 C21           -0.0223    -5.2570     8.1699 C.ar    
  22 C22           -1.0699    -5.9197     7.5542 C.ar    
  23 C23           -1.6775    -5.3721     6.4409 C.ar    
  24 Cl24           1.7406    -3.2215     8.4482 Cl      
  25 Cl25          -1.6261    -7.4378     8.1862 Cl      
  26 C26           -3.8336    -1.9530    -3.6979 C.2     
  27 O27           -4.3292    -2.8042    -4.3977 O.2     
  28 O28           -3.9914    -0.6559    -4.0050 O.3     
  29 C29           -4.8392     1.1675    -5.3786 C.3     
  30 C30           -4.7695    -0.3495    -5.1920 C.3     
  31 H31            0.9191     1.8392     0.0032 H       
  32 H32           -0.5563     1.8234    -0.7642 H       
  33 H33           -4.3379    -4.1917     2.5065 H       
  34 H34           -3.2770    -5.1745     4.4967 H       
  35 H35           -0.6075    -1.8298     4.7052 H       
  36 H36           -1.6830    -0.8594     2.7167 H       
  37 H37           -4.7772    -2.1700     1.2417 H       
  38 H38           -3.6679    -0.7806     1.3281 H       
  39 H39           -2.9996    -3.4509     0.0122 H       
  40 H40           -3.7692    -0.7643    -1.2154 H       
  41 H41           -0.8943    -2.4742    -0.0027 H       
  42 H42           -2.0462    -1.8992    -2.5331 H       
  43 H43           -3.7617    -4.2367    -2.3835 H       
  44 H44           -5.1583    -3.3138    -1.2158 H       
  45 H45            0.5123    -0.3556    -0.8948 H       
  46 H46            0.5293    -0.3651     0.8851 H       
  47 H47            0.1789    -2.5487     6.1655 H       
  48 H48            0.4474    -5.6863     9.0426 H       
  49 H49           -2.4949    -5.8898     5.9611 H       
  50 H50           -3.8312     1.5664    -5.4919 H       
  51 H51           -5.4233     1.3975    -6.2697 H       
  52 H52           -5.3129     1.6193    -4.5070 H       
  53 H53           -4.2958    -0.8013    -6.0636 H       
  54 H54           -5.7775    -0.7484    -5.0787 H       
@<TRIPOS>BOND
   1    1   16 1
   2    1   31 1
   3    1   32 1
   4    2    3 ar
   5    2    7 ar
   6    2   33 1
   7    3    4 ar
   8    3   34 1
   9    4    5 ar
  10    4   18 1
  11    5    6 ar
  12    5   35 1
  13    6    7 ar
  14    6   36 1
  15    7    8 1
  16    8    9 1
  17    8   37 1
  18    8   38 1
  19    9   10 1
  20    9   11 1
  21    9   39 1
  22   10   12 1
  23   10   14 1
  24   10   40 1
  25   11   15 am
  26   11   41 1
  27   12   13 1
  28   12   26 1
  29   12   42 1
  30   13   43 1
  31   14   44 1
  32   15   16 1
  33   15   17 2
  34   16   45 1
  35   16   46 1
  36   18   19 ar
  37   18   23 ar
  38   19   20 ar
  39   19   47 1
  40   20   21 ar
  41   20   24 1
  42   21   22 ar
  43   21   48 1
  44   22   23 ar
  45   22   25 1
  46   23   49 1
  47   26   27 2
  48   26   28 1
  49   28   30 1
  50   29   30 1
  51   29   50 1
  52   29   51 1
  53   29   52 1
  54   30   53 1
  55   30   54 1

#	End of record

