#	Name: ASD02039149
#	Creating user name:	WinNT
#	Creation time:	15. 06. 2019 20:17

#	Modifying user name:	WinNT
#	Modification time:	15. 06. 2019 20:17

#	Program:	/corina/corina34_cracker 3.40 0067  02.08.2006

@<TRIPOS>MOLECULE
ASD02039149
  39   42    0    0    0
SMALL
NO_CHARGES


@<TRIPOS>ATOM
   1 N1             0.0020     1.2623     0.3699 N.2     
   2 C2             0.0063    -0.0136     0.0892 C.2     
   3 N3             1.2922    -0.3754    -0.1072 N.2     
   4 C4             1.9960     0.7158     0.0684 C.2     
   5 O5             1.1351     1.6952     0.3619 O.3     
   6 C6             3.4938     0.8426    -0.0396 C.3     
   7 O7             3.8483     1.1704    -1.3845 O.3     
   8 C8             5.1722     1.3218    -1.6544 C.ar    
   9 N9            -1.1052    -0.8435     0.0085 N.pl3   
  10 C10           -2.3896    -0.3053     0.1291 C.ar    
  11 C11           -2.6360     1.0026    -0.2681 C.ar    
  12 C12           -3.9070     1.5323    -0.1477 C.ar    
  13 C13           -4.9336     0.7608     0.3681 C.ar    
  14 C14           -4.6908    -0.5425     0.7650 C.ar    
  15 C15           -3.4230    -1.0793     0.6411 C.ar    
  16 C16            6.1099     1.1566    -0.6381 C.ar    
  17 C17            7.4554     1.3057    -0.8932 C.ar    
  18 C18            7.8881     1.6243    -2.1759 C.ar    
  19 C19            6.9437     1.7922    -3.2062 C.ar    
  20 C20            5.5808     1.6330    -2.9359 C.ar    
  21 N21            9.2317     1.7790    -2.4515 N.am    
  22 C22            9.6524     2.0878    -3.6905 C.2     
  23 C23            8.7462     2.2671    -4.7574 C.2     
  24 C24            7.4131     2.1285    -4.5517 C.2     
  25 O25           10.8467     2.2167    -3.8974 O.2     
  26 Cl26          -5.9813    -1.5067     1.4120 Cl      
  27 Cl27          -4.2158     3.1672    -0.6433 Cl      
  28 H28            3.8410     1.6297     0.6298 H       
  29 H29            3.9594    -0.1028     0.2389 H       
  30 H30           -0.9898    -1.7964    -0.1316 H       
  31 H31           -1.8351     1.6053    -0.6703 H       
  32 H32           -5.9259     1.1766     0.4613 H       
  33 H33           -3.2340    -2.0965     0.9510 H       
  34 H34            5.7790     0.9095     0.3598 H       
  35 H35            8.1739     1.1756    -0.0974 H       
  36 H36            4.8521     1.7604    -3.7229 H       
  37 H37            9.8817     1.6634    -1.7409 H       
  38 H38            9.1159     2.5151    -5.7413 H       
  39 H39            6.7128     2.2632    -5.3628 H       
@<TRIPOS>BOND
   1    1    2 2
   2    1    5 1
   3    2    3 1
   4    2    9 1
   5    3    4 2
   6    4    5 1
   7    4    6 1
   8    6    7 1
   9    6   28 1
  10    6   29 1
  11    7    8 1
  12    8   16 ar
  13    8   20 ar
  14    9   10 1
  15    9   30 1
  16   10   11 ar
  17   10   15 ar
  18   11   12 ar
  19   11   31 1
  20   12   13 ar
  21   12   27 1
  22   13   14 ar
  23   13   32 1
  24   14   15 ar
  25   14   26 1
  26   15   33 1
  27   16   17 ar
  28   16   34 1
  29   17   18 ar
  30   17   35 1
  31   18   19 ar
  32   18   21 1
  33   19   20 ar
  34   19   24 1
  35   20   36 1
  36   21   22 am
  37   21   37 1
  38   22   23 1
  39   22   25 2
  40   23   24 2
  41   23   38 1
  42   24   39 1

#	End of record

