#	Name: ASD01884415
#	Creating user name:	WinNT
#	Creation time:	15. 06. 2019 19:48

#	Modifying user name:	WinNT
#	Modification time:	15. 06. 2019 19:48

#	Program:	/corina/corina34_cracker 3.40 0067  02.08.2006

@<TRIPOS>MOLECULE
ASD01884415
  43   45    0    0    0
SMALL
NO_CHARGES


@<TRIPOS>ATOM
   1 C1            -0.0164     1.3576     0.0095 C.2     
   2 C2             0.0021    -0.0041     0.0020 C.2     
   3 C3             1.2440    -0.6751    -0.0134 C.2     
   4 C4             2.4024     0.0465    -0.0206 C.2     
   5 N5             2.3700     1.4023    -0.0126 N.am    
   6 C6             1.1986     2.0652     0.0017 C.2     
   7 C7             1.2897    -2.1584    -0.0214 C.ar    
   8 C8             3.6266     2.1554    -0.0201 C.3     
   9 O9             1.1911     3.2856     0.0083 O.2     
  10 C10            4.0442     2.4218    -1.4434 C.ar    
  11 C11            3.6203     3.5708    -2.0845 C.ar    
  12 C12            4.0033     3.8151    -3.3901 C.ar    
  13 C13            4.8105     2.9106    -4.0544 C.ar    
  14 C14            5.2351     1.7620    -3.4129 C.ar    
  15 C15            4.8556     1.5199    -2.1059 C.ar    
  16 C16            0.8124    -2.8770     1.0729 C.ar    
  17 C17            1.8048    -2.8347    -1.1254 C.ar    
  18 C18            1.8472    -4.2143    -1.1323 C.ar    
  19 C19            1.3774    -4.9302    -0.0419 C.ar    
  20 C20            0.8568    -4.2598     1.0618 C.ar    
  21 O21            1.4203    -6.2894    -0.0525 O.3     
  22 C22            1.9620    -6.9123    -1.2190 C.3     
  23 O23            0.3967    -4.9637     2.1306 O.3     
  24 C24           -0.1237    -4.2108     3.2280 C.3     
  25 H25           -0.9563     1.8895     0.0169 H       
  26 H26           -0.9217    -0.5635     0.0082 H       
  27 H27            3.3528    -0.4664    -0.0325 H       
  28 H28            3.4856     3.1027     0.5005 H       
  29 H29            4.4005     1.5759     0.4832 H       
  30 H30            2.9897     4.2774    -1.5655 H       
  31 H31            3.6716     4.7124    -3.8912 H       
  32 H32            5.1091     3.1011    -5.0746 H       
  33 H33            5.8654     1.0552    -3.9320 H       
  34 H34            5.1873     0.6225    -1.6047 H       
  35 H35            0.4088    -2.3555     1.9282 H       
  36 H36            2.1708    -2.2792    -1.9763 H       
  37 H37            2.2467    -4.7370    -1.9887 H       
  38 H38            1.3692    -6.6312    -2.0894 H       
  39 H39            2.9922    -6.5856    -1.3601 H       
  40 H40            1.9377    -7.9952    -1.0972 H       
  41 H41           -0.4555    -4.8923     4.0113 H       
  42 H42            0.6543    -3.5565     3.6211 H       
  43 H43           -0.9670    -3.6093     2.8885 H       
@<TRIPOS>BOND
   1    1    2 2
   2    1    6 1
   3    1   25 1
   4    2    3 1
   5    2   26 1
   6    3    4 2
   7    3    7 1
   8    4    5 1
   9    4   27 1
  10    5    6 am
  11    5    8 1
  12    6    9 2
  13    7   16 ar
  14    7   17 ar
  15    8   10 1
  16    8   28 1
  17    8   29 1
  18   10   11 ar
  19   10   15 ar
  20   11   12 ar
  21   11   30 1
  22   12   13 ar
  23   12   31 1
  24   13   14 ar
  25   13   32 1
  26   14   15 ar
  27   14   33 1
  28   15   34 1
  29   16   20 ar
  30   16   35 1
  31   17   18 ar
  32   17   36 1
  33   18   19 ar
  34   18   37 1
  35   19   20 ar
  36   19   21 1
  37   20   23 1
  38   21   22 1
  39   22   38 1
  40   22   39 1
  41   22   40 1
  42   23   24 1
  43   24   41 1
  44   24   42 1
  45   24   43 1

#	End of record

