#	Name: ASD00844865
#	Creating user name:	WinNT
#	Creation time:	15. 06. 2019 18:51

#	Modifying user name:	WinNT
#	Modification time:	15. 06. 2019 18:51

#	Program:	/corina/corina34_cracker 3.40 0067  02.08.2006

@<TRIPOS>MOLECULE
ASD00844865
  86   91    0    0    0
SMALL
NO_CHARGES


@<TRIPOS>ATOM
   1 F1             5.7057    -2.1840    -1.9782 F       
   2 C2             0.7584     1.2683    -0.4601 C.ar    
   3 C3             1.0008    -0.0750    -0.7071 C.ar    
   4 C4             0.8704    -1.0010     0.3179 C.ar    
   5 C5             0.4995    -0.5835     1.5812 C.ar    
   6 C6             0.2579     0.7562     1.8248 C.ar    
   7 C7             0.3876     1.6809     0.8053 C.ar    
   8 C8             1.1325    -2.4612     0.0530 C.3     
   9 C9             0.7973    -3.2901     1.2743 C.2     
  10 C10            0.3259    -2.9383    -1.1564 C.3     
  11 C11           -1.1345    -2.6387    -0.9360 C.2     
  12 N12           -2.0519    -3.0660    -1.8261 N.am    
  13 O13           -1.4843    -2.0132     0.0424 O.2     
  14 C14           -3.4670    -2.6884    -1.6919 C.3     
  15 C15           -3.9481    -2.1195    -3.0310 C.3     
  16 N16           -3.6615    -3.0846    -4.1007 N.3     
  17 C17           -2.2165    -3.3048    -4.2467 C.3     
  18 C18           -1.6634    -3.9172    -2.9609 C.3     
  19 C19           -4.2596    -2.6548    -5.3717 C.3     
  20 C20           -3.8375    -3.6156    -6.4867 C.3     
  21 C21           -4.5121    -3.1984    -7.7955 C.3     
  22 N22           -5.9705    -3.2266    -7.6266 N.3     
  23 C23           -6.4039    -2.2771    -6.5937 C.3     
  24 C24           -5.7858    -2.6668    -5.2490 C.3     
  25 H25           -6.4394    -3.0477    -8.5019 H       
  26 O26           -0.2910    -3.3891     1.8007 O.2     
  27 N27            1.9306    -3.8961     1.6658 N.am    
  28 C28            2.6093    -2.7034    -0.1629 C.ar    
  29 C29            3.0135    -3.5737     0.8443 C.ar    
  30 C30            3.5030    -2.2393    -1.1028 C.ar    
  31 C31            4.8277    -2.6373    -1.0569 C.ar    
  32 C32            5.2521    -3.5118    -0.0513 C.ar    
  33 C33            4.3421    -3.9783     0.8969 C.ar    
  34 C34            1.7049    -6.5410     2.3927 C.ar    
  35 C35            0.4531    -6.8605     1.8878 C.ar    
  36 C36            2.6969    -7.5018     2.4357 C.ar    
  37 C37            2.4428    -8.7804     1.9758 C.ar    
  38 C38            1.1956    -9.1015     1.4721 C.ar    
  39 C39            0.2004    -8.1447     1.4273 C.ar    
  40 H40            0.9996   -10.1011     1.1134 H       
  41 O41           -0.5245    -5.9174     1.8448 O.3     
  42 C42           -1.7888    -6.3173     1.3122 C.3     
  43 S43            2.0320    -4.9093     2.9718 S.o2    
  44 O44            3.3913    -4.8954     3.3858 O.2     
  45 O45            0.9541    -4.5651     3.8314 O.2     
  46 O46            1.3652    -0.4834    -1.9510 O.3     
  47 C47            1.3994     0.5114    -2.9763 C.3     
  48 C48            1.9117    -0.1130    -4.2758 C.3     
  49 F49            3.1624    -0.6980    -4.0507 F       
  50 F50            1.0107    -1.0912    -4.7100 F       
  51 C51            6.6209    -3.9290     0.0040 C.1     
  52 N52            7.7067    -4.2599     0.0479 N.1     
  53 H53            0.8636     1.9916    -1.2552 H       
  54 H54            0.3978    -1.3039     2.3794 H       
  55 H55           -0.0327     1.0806     2.8131 H       
  56 H56            0.1984     2.7265     0.9981 H       
  57 H57            0.6720    -2.4206    -2.0511 H       
  58 H58            0.4614    -4.0124    -1.2827 H       
  59 H59           -4.0577    -3.5675    -1.4342 H       
  60 H60           -3.5720    -1.9322    -0.9139 H       
  61 H61           -5.0217    -1.9369    -2.9839 H       
  62 H62           -3.4283    -1.1838    -3.2365 H       
  63 H63           -2.0342    -3.9817    -5.0813 H       
  64 H64           -1.7207    -2.3525    -4.4353 H       
  65 H65           -0.5766    -3.9761    -3.0213 H       
  66 H66           -2.0798    -4.9149    -2.8219 H       
  67 H67           -3.9204    -1.6471    -5.6115 H       
  68 H68           -2.7548    -3.5795    -6.6077 H       
  69 H69           -4.1417    -4.6298    -6.2277 H       
  70 H70           -4.1967    -2.1894    -8.0611 H       
  71 H71           -4.2249    -3.8891    -8.5884 H       
  72 H72           -6.0797    -1.2724    -6.8649 H       
  73 H73           -7.4908    -2.2986    -6.5137 H       
  74 H74           -6.1207    -3.6660    -4.9705 H       
  75 H75           -6.0952    -1.9528    -4.4857 H       
  76 H76            3.1693    -1.5641    -1.8769 H       
  77 H77            4.6703    -4.6536     1.6732 H       
  78 H78            3.6718    -7.2535     2.8287 H       
  79 H79            3.2198    -9.5299     2.0097 H       
  80 H80           -0.7737    -8.3961     1.0344 H       
  81 H81           -1.6598    -6.6526     0.2831 H       
  82 H82           -2.1942    -7.1322     1.9118 H       
  83 H83           -2.4766    -5.4720     1.3354 H       
  84 H84            0.3955     0.9057    -3.1337 H       
  85 H85            2.0646     1.3208    -2.6752 H       
  86 H86            2.0041     0.6601    -5.0386 H       
@<TRIPOS>BOND
   1    1   31 1
   2    2    3 ar
   3    2    7 ar
   4    2   53 1
   5    3    4 ar
   6    3   46 1
   7    4    5 ar
   8    4    8 1
   9    5    6 ar
  10    5   54 1
  11    6    7 ar
  12    6   55 1
  13    7   56 1
  14    8    9 1
  15    8   10 1
  16    8   28 1
  17    9   26 2
  18    9   27 am
  19   10   11 1
  20   10   57 1
  21   10   58 1
  22   11   12 am
  23   11   13 2
  24   12   14 1
  25   12   18 1
  26   14   15 1
  27   14   59 1
  28   14   60 1
  29   15   16 1
  30   15   61 1
  31   15   62 1
  32   16   17 1
  33   16   19 1
  34   17   18 1
  35   17   63 1
  36   17   64 1
  37   18   65 1
  38   18   66 1
  39   19   20 1
  40   19   24 1
  41   19   67 1
  42   20   21 1
  43   20   68 1
  44   20   69 1
  45   21   22 1
  46   21   70 1
  47   21   71 1
  48   22   23 1
  49   22   25 1
  50   23   24 1
  51   23   72 1
  52   23   73 1
  53   24   74 1
  54   24   75 1
  55   27   43 am
  56   27   29 1
  57   28   29 ar
  58   28   30 ar
  59   29   33 ar
  60   30   31 ar
  61   30   76 1
  62   31   32 ar
  63   32   33 ar
  64   32   51 1
  65   33   77 1
  66   34   35 ar
  67   34   36 ar
  68   34   43 1
  69   35   41 1
  70   35   39 ar
  71   36   37 ar
  72   36   78 1
  73   37   38 ar
  74   37   79 1
  75   38   39 ar
  76   38   40 1
  77   39   80 1
  78   41   42 1
  79   42   81 1
  80   42   82 1
  81   42   83 1
  82   43   44 2
  83   43   45 2
  84   46   47 1
  85   47   48 1
  86   47   84 1
  87   47   85 1
  88   48   49 1
  89   48   50 1
  90   48   86 1
  91   51   52 3

#	End of record

