#	Name: ASD06660011
#	Creating user name:	WinNT
#	Creation time:	15. 06. 2019 21:07

#	Modifying user name:	WinNT
#	Modification time:	15. 06. 2019 21:07

#	Program:	/corina/corina34_cracker 3.40 0067  02.08.2006

@<TRIPOS>MOLECULE
ASD06660011
  72   75    0    0    0
SMALL
NO_CHARGES


@<TRIPOS>ATOM
   1 C1            -0.0363     1.5041     0.0181 C.2     
   2 C2            -0.0150    -0.0027     0.0113 C.3     
   3 C3            -0.7241    -0.5171    -1.2431 C.3     
   4 O4             1.0015     2.1229     0.0250 O.2     
   5 O5            -1.2081     2.1588     0.0110 O.3     
   6 C6             2.0394    -0.5962     1.1794 C.2     
   7 C7             3.4401    -1.0693     1.1827 C.ar    
   8 C8             3.7189    -2.4333     1.2828 C.ar    
   9 C9             5.0282    -2.8681     1.2848 C.ar    
  10 C10            6.0636    -1.9555     1.1885 C.ar    
  11 C11            5.7941    -0.6021     1.0890 C.ar    
  12 C12            4.4892    -0.1544     1.0800 C.ar    
  13 O13            1.4888    -0.3196     2.2272 O.2     
  14 N14            1.3729    -0.4716     0.0146 N.am    
  15 C15            4.1972     1.3196     0.9654 C.3     
  16 C16            7.4914    -2.4377     1.1923 C.3     
  17 C17            2.5924    -3.4286     1.3888 C.3     
  18 C18           -0.8113    -2.0207    -1.1900 C.ar    
  19 C19           -1.9060    -2.6280    -0.6027 C.ar    
  20 C20           -1.9889    -4.0057    -0.5524 C.ar    
  21 C21           -0.9716    -4.7812    -1.0929 C.ar    
  22 C22            0.1263    -4.1682    -1.6824 C.ar    
  23 C23            0.2009    -2.7901    -1.7338 C.ar    
  24 N24           -1.0523    -6.1772    -1.0432 N.am    
  25 C25           -0.1772    -7.0091    -1.6340 C.2     
  26 C26           -0.5641    -8.4469    -1.3664 C.3     
  27 C27           -1.5582    -8.3586    -0.1854 C.3     
  28 C28           -2.0998    -6.9214    -0.3340 C.3     
  29 O29            0.7828    -6.6580    -2.2869 O.2     
  30 C30           -2.6796    -9.3885    -0.3354 C.3     
  31 N31           -2.1230   -10.7380    -0.2117 N.pl3   
  32 C32           -2.9565   -11.8457    -0.3142 C.ar    
  33 C33           -4.3185   -11.6657    -0.5342 C.ar    
  34 C34           -5.1362   -12.7766    -0.6341 C.ar    
  35 C35           -4.5624   -14.0353    -0.5101 C.ar    
  36 C36           -3.2034   -14.1403    -0.2926 C.ar    
  37 N37           -2.4464   -13.0627    -0.2069 N.ar    
  38 C38           -6.6166   -12.6248    -0.8716 C.3     
  39 H39           -0.5272    -0.3774     0.8976 H       
  40 H40           -1.7285    -0.0964    -1.2910 H       
  41 H41           -0.1618    -0.2168    -2.1273 H       
  42 H42           -1.1711     3.1251     0.0158 H       
  43 H43            5.2453    -3.9232     1.3622 H       
  44 H44            6.6069     0.1051     1.0141 H       
  45 H45            1.8123    -0.6923    -0.8216 H       
  46 H46            4.1531     1.7598     1.9616 H       
  47 H47            4.9865     1.8026     0.3894 H       
  48 H48            3.2409     1.4625     0.4623 H       
  49 H49            7.8112    -2.6345     0.1690 H       
  50 H50            8.1318    -1.6735     1.6326 H       
  51 H51            7.5638    -3.3541     1.7781 H       
  52 H52            2.2954    -3.7489     0.3902 H       
  53 H53            2.9242    -4.2930     1.9639 H       
  54 H54            1.7428    -2.9638     1.8890 H       
  55 H55           -2.6969    -2.0243    -0.1825 H       
  56 H56           -2.8438    -4.4794    -0.0929 H       
  57 H57            0.9191    -4.7686    -2.1036 H       
  58 H58            1.0524    -2.3128    -2.1958 H       
  59 H59           -1.0486    -8.8806    -2.2412 H       
  60 H60            0.3117    -9.0316    -1.0850 H       
  61 H61           -1.0435    -8.4805     0.7677 H       
  62 H62           -2.2774    -6.4806     0.6469 H       
  63 H63           -3.0200    -6.9266    -0.9182 H       
  64 H64           -3.4251    -9.2302     0.4439 H       
  65 H65           -3.1472    -9.2766    -1.3136 H       
  66 H66           -1.1728   -10.8585    -0.0584 H       
  67 H67           -4.7316   -10.6720    -0.6254 H       
  68 H68           -5.1734   -14.9228    -0.5829 H       
  69 H69           -2.7532   -15.1172    -0.1956 H       
  70 H70           -6.8134   -12.6147    -1.9437 H       
  71 H71           -7.1457   -13.4600    -0.4129 H       
  72 H72           -6.9613   -11.6897    -0.4302 H       
@<TRIPOS>BOND
   1    1    2 1
   2    1    4 2
   3    1    5 1
   4    2    3 1
   5    2   14 1
   6    2   39 1
   7    3   18 1
   8    3   40 1
   9    3   41 1
  10    5   42 1
  11    6    7 1
  12    6   13 2
  13    6   14 am
  14    7    8 ar
  15    7   12 ar
  16    8    9 ar
  17    8   17 1
  18    9   10 ar
  19    9   43 1
  20   10   11 ar
  21   10   16 1
  22   11   12 ar
  23   11   44 1
  24   12   15 1
  25   14   45 1
  26   15   46 1
  27   15   47 1
  28   15   48 1
  29   16   49 1
  30   16   50 1
  31   16   51 1
  32   17   52 1
  33   17   53 1
  34   17   54 1
  35   18   19 ar
  36   18   23 ar
  37   19   20 ar
  38   19   55 1
  39   20   21 ar
  40   20   56 1
  41   21   22 ar
  42   21   24 1
  43   22   23 ar
  44   22   57 1
  45   23   58 1
  46   24   25 am
  47   24   28 1
  48   25   26 1
  49   25   29 2
  50   26   27 1
  51   26   59 1
  52   26   60 1
  53   27   28 1
  54   27   30 1
  55   27   61 1
  56   28   62 1
  57   28   63 1
  58   30   31 1
  59   30   64 1
  60   30   65 1
  61   31   32 1
  62   31   66 1
  63   32   33 ar
  64   32   37 ar
  65   33   34 ar
  66   33   67 1
  67   34   35 ar
  68   34   38 1
  69   35   36 ar
  70   35   68 1
  71   36   37 ar
  72   36   69 1
  73   38   70 1
  74   38   71 1
  75   38   72 1

#	End of record

