#	Name: ASD01028511
#	Creating user name:	WinNT
#	Creation time:	15. 06. 2019 18:57

#	Modifying user name:	WinNT
#	Modification time:	15. 06. 2019 18:57

#	Program:	/corina/corina34_cracker 3.40 0067  02.08.2006

@<TRIPOS>MOLECULE
ASD01028511
  40   43    0    0    0
SMALL
NO_CHARGES


@<TRIPOS>ATOM
   1 C1            -0.0184     1.5028     0.0103 C.ar    
   2 C2             0.0021    -0.0041     0.0020 C.3     
   3 C3             0.0225    -0.5140     1.4200 C.2     
   4 N4            -1.0572    -0.7986     2.1805 N.pl3   
   5 C5            -0.5661    -1.2293     3.3902 C.2     
   6 N6             0.7534    -1.1855     3.3051 N.2     
   7 N7             1.0902    -0.7665     2.1353 N.2     
   8 N8            -2.4357    -0.7350     1.9671 N.2     
   9 C9            -3.2742    -1.0852     2.9172 C.2     
  10 C10           -2.8012    -1.5310     4.1696 C.2     
  11 C11           -1.4649    -1.6047     4.4066 C.2     
  12 C12           -4.7351    -1.0102     2.6698 C.ar    
  13 C13           -5.2140    -0.5710     1.4370 C.ar    
  14 C14           -6.5741    -0.5037     1.2122 C.ar    
  15 C15           -7.4613    -0.8707     2.2080 C.ar    
  16 C16           -6.9915    -1.3074     3.4336 C.ar    
  17 C17           -5.6334    -1.3841     3.6674 C.ar    
  18 C18            1.1702     2.2092     0.0027 C.ar    
  19 C19           -1.2257     2.1766     0.0197 C.ar    
  20 C20           -1.2471     3.5578     0.0268 C.ar    
  21 C21           -0.0559     4.2689     0.0246 C.ar    
  22 C22            1.1542     3.5905     0.0103 C.ar    
  23 O23           -0.0743     5.6278     0.0312 O.3     
  24 C24            1.1900     6.2937     0.0284 C.3     
  25 H25           -0.8878    -0.3767    -0.5053 H       
  26 H26            0.8920    -0.3525    -0.5222 H       
  27 H27           -3.5020    -1.8146     4.9408 H       
  28 H28           -1.0972    -1.9453     5.3633 H       
  29 H29           -4.5222    -0.2835     0.6591 H       
  30 H30           -6.9463    -0.1635     0.2572 H       
  31 H31           -8.5248    -0.8158     2.0280 H       
  32 H32           -7.6886    -1.5924     4.2076 H       
  33 H33           -5.2677    -1.7252     4.6246 H       
  34 H34            2.1119     1.6806    -0.0087 H       
  35 H35           -2.1528     1.6226     0.0211 H       
  36 H36           -2.1904     4.0837     0.0338 H       
  37 H37            2.0829     4.1418     0.0086 H       
  38 H38            1.7551     6.0042     0.9143 H       
  39 H39            1.7467     6.0127    -0.8656 H       
  40 H40            1.0325     7.3723     0.0343 H       
@<TRIPOS>BOND
   1    1    2 1
   2    1   18 ar
   3    1   19 ar
   4    2    3 1
   5    2   25 1
   6    2   26 1
   7    3    4 1
   8    3    7 2
   9    4    5 1
  10    4    8 1
  11    5    6 2
  12    5   11 1
  13    6    7 1
  14    8    9 2
  15    9   10 1
  16    9   12 1
  17   10   11 2
  18   10   27 1
  19   11   28 1
  20   12   13 ar
  21   12   17 ar
  22   13   14 ar
  23   13   29 1
  24   14   15 ar
  25   14   30 1
  26   15   16 ar
  27   15   31 1
  28   16   17 ar
  29   16   32 1
  30   17   33 1
  31   18   22 ar
  32   18   34 1
  33   19   20 ar
  34   19   35 1
  35   20   21 ar
  36   20   36 1
  37   21   22 ar
  38   21   23 1
  39   22   37 1
  40   23   24 1
  41   24   38 1
  42   24   39 1
  43   24   40 1

#	End of record

