#	Name: ASD01911442
#	Creating user name:	WinNT
#	Creation time:	15. 06. 2019 19:57

#	Modifying user name:	WinNT
#	Modification time:	15. 06. 2019 19:57

#	Program:	/corina/corina34_cracker 3.40 0067  02.08.2006

@<TRIPOS>MOLECULE
ASD01911442
  38   40    0    0    0
SMALL
NO_CHARGES


@<TRIPOS>ATOM
   1 C1             0.0664     1.5902    -0.0414 C.2     
   2 C2             0.0335     0.0840    -0.0070 C.3     
   3 O3             1.1256     2.1709    -0.0717 O.2     
   4 O4            -1.0810     2.2867    -0.0439 O.3     
   5 N5             1.4036    -0.4347    -0.0177 N.pl3   
   6 N6             2.2204    -0.6271     1.1036 N.2     
   7 C7             3.3774    -1.1071     0.6981 C.2     
   8 C8             3.3357    -1.2368    -0.7003 C.2     
   9 C9             2.1064    -0.8209    -1.1207 C.2     
  10 C10            1.6240    -0.7919    -2.5195 C.ar    
  11 C11            0.5830     0.0623    -2.8838 C.ar    
  12 C12            0.1378     0.0847    -4.1896 C.ar    
  13 C13            0.7212    -0.7379    -5.1366 C.ar    
  14 C14            1.7536    -1.5876    -4.7815 C.ar    
  15 C15            2.2123    -1.6144    -3.4804 C.ar    
  16 C16            4.5290    -1.4515     1.5690 C.ar    
  17 C17            4.4396    -1.2739     2.9482 C.ar    
  18 C18            5.5123    -1.5952     3.7541 C.ar    
  19 C19            6.6776    -2.0934     3.1938 C.ar    
  20 C20            6.7707    -2.2715     1.8233 C.ar    
  21 C21            5.7001    -1.9585     1.0105 C.ar    
  22 C22            5.4168    -1.4035     5.2458 C.3     
  23 F23            7.7260    -2.4059     3.9864 F       
  24 H24           -0.4735    -0.2478     0.8991 H       
  25 H25           -0.5026    -0.2877    -0.8802 H       
  26 H26           -1.0094     3.2508    -0.0665 H       
  27 H27            4.1332    -1.6035    -1.3296 H       
  28 H28            0.1263     0.7044    -2.1452 H       
  29 H29           -0.6681     0.7455    -4.4729 H       
  30 H30            0.3689    -0.7170    -6.1573 H       
  31 H31            2.2046    -2.2279    -5.5252 H       
  32 H32            3.0216    -2.2746    -3.2054 H       
  33 H33            3.5320    -0.8850     3.3857 H       
  34 H34            7.6808    -2.6597     1.3906 H       
  35 H35            5.7718    -2.1021    -0.0575 H       
  36 H36            5.0322    -2.3141     5.7052 H       
  37 H37            6.4057    -1.1833     5.6479 H       
  38 H38            4.7433    -0.5745     5.4632 H       
@<TRIPOS>BOND
   1    1    2 1
   2    1    3 2
   3    1    4 1
   4    2    5 1
   5    2   24 1
   6    2   25 1
   7    4   26 1
   8    5    6 1
   9    5    9 1
  10    6    7 2
  11    7    8 1
  12    7   16 1
  13    8    9 2
  14    8   27 1
  15    9   10 1
  16   10   11 ar
  17   10   15 ar
  18   11   12 ar
  19   11   28 1
  20   12   13 ar
  21   12   29 1
  22   13   14 ar
  23   13   30 1
  24   14   15 ar
  25   14   31 1
  26   15   32 1
  27   16   17 ar
  28   16   21 ar
  29   17   18 ar
  30   17   33 1
  31   18   19 ar
  32   18   22 1
  33   19   20 ar
  34   19   23 1
  35   20   21 ar
  36   20   34 1
  37   21   35 1
  38   22   36 1
  39   22   37 1
  40   22   38 1

#	End of record

