#	Name: ASD05313001
#	Creating user name:	WinNT
#	Creation time:	15. 06. 2019 20:58

#	Modifying user name:	WinNT
#	Modification time:	15. 06. 2019 20:58

#	Program:	/corina/corina34_cracker 3.40 0067  02.08.2006

@<TRIPOS>MOLECULE
ASD05313001
  50   52    0    0    0
SMALL
NO_CHARGES


@<TRIPOS>ATOM
   1 C1             0.0920    -0.8502    -1.9318 C.ar    
   2 C2             0.4927     0.2189    -1.1525 C.ar    
   3 C3             1.7269     0.1965    -0.5303 C.ar    
   4 C4             2.5603    -0.8952    -0.6871 C.ar    
   5 C5             2.1593    -1.9647    -1.4658 C.ar    
   6 C6             0.9256    -1.9417    -2.0891 C.ar    
   7 C7             3.9062    -0.9192    -0.0097 C.3     
   8 C8             3.7845    -0.3095     1.3883 C.3     
   9 C9             4.8919    -0.1197    -0.8223 C.ar    
  10 C10            6.0228    -0.7299    -1.3321 C.ar    
  11 C11            6.9272     0.0028    -2.0774 C.ar    
  12 C12            6.7005     1.3471    -2.3133 C.ar    
  13 C13            5.5686     1.9572    -1.8028 C.ar    
  14 C14            4.6620     1.2221    -1.0623 C.ar    
  15 Cl15           7.8363     2.2682    -3.2489 Cl      
  16 O16            4.3615    -2.2695     0.0976 O.3     
  17 C17            3.5582    -3.0877     0.9503 C.3     
  18 C18            4.0475    -4.5355     0.8768 C.3     
  19 C19            3.1109    -5.4323     1.6887 C.3     
  20 N20            3.1697    -5.0742     3.1219 N.3     
  21 C21            3.0699    -6.3104     3.9192 C.3     
  22 C22            2.9690    -7.4877     2.9267 C.3     
  23 C23            3.5881    -6.9048     1.6290 C.3     
  24 C24            2.0981    -4.1329     3.4737 C.3     
  25 H25           -0.8741    -0.8347    -2.4143 H       
  26 H26           -0.1584     1.0718    -1.0299 H       
  27 H27            2.0402     1.0320     0.0780 H       
  28 H28            2.8107    -2.8173    -1.5889 H       
  29 H29            0.6125    -2.7771    -2.6977 H       
  30 H30            3.0715    -0.8877     1.9760 H       
  31 H31            4.7580    -0.3268     1.8783 H       
  32 H32            3.4372     0.7205     1.3065 H       
  33 H33            6.1998    -1.7792    -1.1476 H       
  34 H34            7.8109    -0.4739    -2.4754 H       
  35 H35            5.3911     3.0065    -1.9866 H       
  36 H36            3.7784     1.6982    -0.6638 H       
  37 H37            3.6366    -2.7294     1.9768 H       
  38 H38            2.5185    -3.0387     0.6268 H       
  39 H39            4.0549    -4.8642    -0.1625 H       
  40 H40            5.0561    -4.5993     1.2851 H       
  41 H41            2.0894    -5.3473     1.3179 H       
  42 H42            3.9586    -6.4240     4.5401 H       
  43 H43            2.1788    -6.2765     4.5461 H       
  44 H44            3.5480    -8.3408     3.2804 H       
  45 H45            1.9280    -7.7675     2.7651 H       
  46 H46            3.1920    -7.4082     0.7471 H       
  47 H47            4.6762    -6.9640     1.6547 H       
  48 H48            1.1318    -4.6260     3.3669 H       
  49 H49            2.2266    -3.8052     4.5053 H       
  50 H50            2.1407    -3.2693     2.8101 H       
@<TRIPOS>BOND
   1    1    2 ar
   2    1    6 ar
   3    1   25 1
   4    2    3 ar
   5    2   26 1
   6    3    4 ar
   7    3   27 1
   8    4    5 ar
   9    4    7 1
  10    5    6 ar
  11    5   28 1
  12    6   29 1
  13    7    8 1
  14    7    9 1
  15    7   16 1
  16    8   30 1
  17    8   31 1
  18    8   32 1
  19    9   10 ar
  20    9   14 ar
  21   10   11 ar
  22   10   33 1
  23   11   12 ar
  24   11   34 1
  25   12   13 ar
  26   12   15 1
  27   13   14 ar
  28   13   35 1
  29   14   36 1
  30   16   17 1
  31   17   18 1
  32   17   37 1
  33   17   38 1
  34   18   19 1
  35   18   39 1
  36   18   40 1
  37   19   20 1
  38   19   23 1
  39   19   41 1
  40   20   21 1
  41   20   24 1
  42   21   22 1
  43   21   42 1
  44   21   43 1
  45   22   23 1
  46   22   44 1
  47   22   45 1
  48   23   46 1
  49   23   47 1
  50   24   48 1
  51   24   49 1
  52   24   50 1

#	End of record

