#	Name: ASD01910059
#	Creating user name:	WinNT
#	Creation time:	15. 06. 2019 19:55

#	Modifying user name:	WinNT
#	Modification time:	15. 06. 2019 19:55

#	Program:	/corina/corina34_cracker 3.40 0067  02.08.2006

@<TRIPOS>MOLECULE
ASD01910059
  45   48    0    0    0
SMALL
NO_CHARGES


@<TRIPOS>ATOM
   1 C1            -0.0158     1.3125     0.0093 C.2     
   2 N2             0.0021    -0.0041     0.0020 N.2     
   3 N3            -1.3214    -0.4625     0.0130 N.pl3   
   4 C4            -2.1428     0.6239     0.0272 C.2     
   5 C5            -1.3587     1.7340     0.0305 C.2     
   6 C6             1.1743     2.1988     0.0027 C.ar    
   7 C7             2.4549     1.6498    -0.0130 C.ar    
   8 C8             3.5583     2.4789    -0.0196 C.ar    
   9 C9             3.3946     3.8524    -0.0102 C.ar    
  10 C10            2.1257     4.4027     0.0054 C.ar    
  11 C11            1.0152     3.5831     0.0063 C.ar    
  12 C12           -1.7286    -1.8028     0.0096 C.ar    
  13 N13           -3.5361     0.6012     0.0406 N.am    
  14 C14           -4.2288     1.7573     0.0539 C.2     
  15 C15           -5.7065     1.7333     0.0681 C.ar    
  16 C16           -6.3964     0.5203     0.0678 C.ar    
  17 N17           -7.7131     0.4989     0.0799 N.ar    
  18 C18           -8.4280     1.6076     0.0931 C.ar    
  19 C19           -7.8193     2.8500     0.0944 C.ar    
  20 C20           -6.4379     2.9273     0.0878 C.ar    
  21 O21           -3.6381     2.8199     0.0543 O.2     
  22 C22           -0.9959    -2.7508    -0.6923 C.ar    
  23 C23           -1.4000    -4.0715    -0.6938 C.ar    
  24 C24           -2.5331    -4.4501     0.0027 C.ar    
  25 C25           -3.2649    -3.5084     0.7026 C.ar    
  26 C26           -2.8627    -2.1872     0.7127 C.ar    
  27 C27           -9.9324     1.5193     0.1066 C.3     
  28 H28           -1.7043     2.7571     0.0409 H       
  29 H29            2.5839     0.5776    -0.0197 H       
  30 H30            4.5514     2.0545    -0.0318 H       
  31 H31            4.2608     4.4975    -0.0146 H       
  32 H32            2.0036     5.4758     0.0127 H       
  33 H33            0.0249     4.0138     0.0185 H       
  34 H34           -4.0074    -0.2466     0.0403 H       
  35 H35           -5.8459    -0.4087     0.0571 H       
  36 H36           -8.4161     3.7501     0.1045 H       
  37 H37           -5.9367     3.8840     0.0890 H       
  38 H38           -0.1111    -2.4557    -1.2367 H       
  39 H39           -0.8307    -4.8092    -1.2398 H       
  40 H40           -2.8473    -5.4834    -0.0003 H       
  41 H41           -4.1496    -3.8072     1.2453 H       
  42 H42           -3.4347    -1.4522     1.2595 H       
  43 H43          -10.2855     1.4919     1.1374 H       
  44 H44          -10.3519     2.3895    -0.3982 H       
  45 H45          -10.2478     0.6126    -0.4097 H       
@<TRIPOS>BOND
   1    1    2 2
   2    1    6 1
   3    1    5 1
   4    2    3 1
   5    3    4 1
   6    3   12 1
   7    4    5 2
   8    4   13 1
   9    5   28 1
  10    6    7 ar
  11    6   11 ar
  12    7    8 ar
  13    7   29 1
  14    8    9 ar
  15    8   30 1
  16    9   10 ar
  17    9   31 1
  18   10   11 ar
  19   10   32 1
  20   11   33 1
  21   12   22 ar
  22   12   26 ar
  23   13   14 am
  24   13   34 1
  25   14   15 1
  26   14   21 2
  27   15   16 ar
  28   15   20 ar
  29   16   17 ar
  30   16   35 1
  31   17   18 ar
  32   18   19 ar
  33   18   27 1
  34   19   20 ar
  35   19   36 1
  36   20   37 1
  37   22   23 ar
  38   22   38 1
  39   23   24 ar
  40   23   39 1
  41   24   25 ar
  42   24   40 1
  43   25   26 ar
  44   25   41 1
  45   26   42 1
  46   27   43 1
  47   27   44 1
  48   27   45 1

#	End of record

