#	Name: ASD01948273
#	Creating user name:	WinNT
#	Creation time:	15. 06. 2019 20:14

#	Modifying user name:	WinNT
#	Modification time:	15. 06. 2019 20:14

#	Program:	/corina/corina34_cracker 3.40 0067  02.08.2006

@<TRIPOS>MOLECULE
ASD01948273
  42   44    0    0    0
SMALL
NO_CHARGES


@<TRIPOS>ATOM
   1 C1             1.4553     4.9304    -1.2966 C.ar    
   2 C2             1.9387     4.9357    -2.5932 C.ar    
   3 C3             3.0495     4.1809    -2.9235 C.ar    
   4 C4             3.6810     3.4185    -1.9596 C.ar    
   5 C5             3.2002     3.4103    -0.6575 C.ar    
   6 C6             2.0825     4.1703    -0.3272 C.ar    
   7 N7             4.6422     0.4971    -0.3102 N.am    
   8 C8             4.8828     1.8094    -0.0285 C.2     
   9 N9             3.8374     2.6389     0.3204 N.pl3   
  10 C10            5.6469    -0.3303    -0.6527 C.2     
  11 C11            6.9598     0.1430    -0.7260 C.2     
  12 C12            7.2240     1.4686    -0.4440 C.2     
  13 C13            6.1696     2.3131    -0.0902 C.2     
  14 N14            6.4146     3.6679     0.2012 N.am    
  15 I15            0.9853     6.0890    -4.0594 I       
  16 O16            5.4096    -1.5031    -0.9009 O.2     
  17 F17            1.6113     4.1657     0.9390 F       
  18 C18            3.2737    -0.0201    -0.2332 C.3     
  19 S19            7.9395     4.2897     0.0273 S.o2    
  20 O20            7.8041     5.6568     0.3906 O.2     
  21 O21            8.7644     3.4101     0.7790 O.2     
  22 C22            8.2924     4.1340    -1.7453 C.3     
  23 C23            9.6369     4.6642    -2.2472 C.3     
  24 C24            9.3923     3.1562    -2.1634 C.3     
  25 C25            8.0808    -0.7882    -1.1096 C.3     
  26 H26            0.5901     5.5241    -1.0409 H       
  27 H27            3.4237     4.1872    -3.9366 H       
  28 H28            4.5480     2.8291    -2.2192 H       
  29 H29            3.5440     2.6874     1.2437 H       
  30 H30            8.2339     1.8477    -0.4963 H       
  31 H31            5.6902     4.2376     0.5039 H       
  32 H32            2.7600     0.1696    -1.1757 H       
  33 H33            3.3009    -1.0931    -0.0438 H       
  34 H34            2.7419     0.4786     0.5771 H       
  35 H35            7.4321     4.2372    -2.4067 H       
  36 H36            9.6614     5.1159    -3.2389 H       
  37 H37           10.3095     5.1066    -1.5122 H       
  38 H38            9.9040     2.6065    -1.3735 H       
  39 H39            9.2558     2.6158    -3.1001 H       
  40 H40            7.6789    -1.7849    -1.2920 H       
  41 H41            8.5651    -0.4206    -2.0143 H       
  42 H42            8.8093    -0.8328    -0.3000 H       
@<TRIPOS>BOND
   1    1    2 ar
   2    1    6 ar
   3    1   26 1
   4    2    3 ar
   5    2   15 1
   6    3    4 ar
   7    3   27 1
   8    4    5 ar
   9    4   28 1
  10    5    6 ar
  11    5    9 1
  12    6   17 1
  13    7    8 1
  14    7   10 am
  15    7   18 1
  16    8    9 1
  17    8   13 2
  18    9   29 1
  19   10   11 1
  20   10   16 2
  21   11   12 2
  22   11   25 1
  23   12   13 1
  24   12   30 1
  25   13   14 1
  26   14   19 am
  27   14   31 1
  28   18   32 1
  29   18   33 1
  30   18   34 1
  31   19   20 2
  32   19   21 2
  33   19   22 1
  34   22   23 1
  35   22   24 1
  36   22   35 1
  37   23   24 1
  38   23   36 1
  39   23   37 1
  40   24   38 1
  41   24   39 1
  42   25   40 1
  43   25   41 1
  44   25   42 1

#	End of record

