#	Name: ASD00960002
#	Creating user name:	WinNT
#	Creation time:	15. 06. 2019 18:53

#	Modifying user name:	WinNT
#	Modification time:	15. 06. 2019 18:53

#	Program:	/corina/corina34_cracker 3.40 0067  02.08.2006

@<TRIPOS>MOLECULE
ASD00960002
  11   11    0    0    0
SMALL
NO_CHARGES


@<TRIPOS>ATOM
   1 C1            -0.0158     1.3136     0.0093 C.2     
   2 N2             0.0021    -0.0041     0.0020 N.2     
   3 C3             1.1583    -0.5766    -0.0121 C.2     
   4 S4             2.3987     0.6000    -0.0176 S.3     
   5 C5             1.1926     1.8843     0.0008 C.2     
   6 C6             1.3828    -2.0668    -0.0222 C.3     
   7 H7            -0.9320     1.8854     0.0168 H       
   8 H8             1.3942     2.9453     0.0042 H       
   9 H9             1.4271    -2.4205    -1.0523 H       
  10 H10            2.3218    -2.2962     0.4814 H       
  11 H11            0.5618    -2.5615     0.4968 H       
@<TRIPOS>BOND
   1    1    2 1
   2    1    5 2
   3    1    7 1
   4    2    3 2
   5    3    4 1
   6    3    6 1
   7    4    5 1
   8    5    8 1
   9    6    9 1
  10    6   10 1
  11    6   11 1

#	End of record

