#	Name: ASD01920070
#	Creating user name:	WinNT
#	Creation time:	15. 06. 2019 20:11

#	Modifying user name:	WinNT
#	Modification time:	15. 06. 2019 20:11

#	Program:	/corina/corina34_cracker 3.40 0067  02.08.2006

@<TRIPOS>MOLECULE
ASD01920070
  40   42    0    0    0
SMALL
NO_CHARGES


@<TRIPOS>ATOM
   1 C1            -0.7867     3.5288    -0.6480 C.3     
   2 O2            -1.5649     4.2544    -1.6020 O.3     
   3 C3             0.6348     4.0285    -0.6746 C.2     
   4 O4             0.9309     4.9780    -1.3689 O.2     
   5 N5             1.5770     3.4204     0.0730 N.am    
   6 C6             2.9153     3.8227    -0.0238 C.ar    
   7 C7             3.2256     5.1621    -0.2193 C.ar    
   8 C8             3.9321     2.8832     0.0814 C.ar    
   9 C9             5.2521     3.2809    -0.0137 C.ar    
  10 C10            5.5609     4.6195    -0.2144 C.ar    
  11 C11            4.5448     5.5586    -0.3146 C.ar    
  12 O12            6.8598     5.0108    -0.3075 O.3     
  13 Cl13           6.5241     2.1069     0.1183 Cl      
  14 C14            7.4593     4.9452    -1.5230 C.ar    
  15 C15            8.8030     5.2746    -1.6456 C.ar    
  16 C16            9.4031     5.2038    -2.8908 C.ar    
  17 C17            8.6331     4.8036    -3.9752 C.ar    
  18 C18            7.3012     4.4907    -3.7793 C.ar    
  19 N19            6.7595     4.5630    -2.5785 N.ar    
  20 Cl20           9.3356     4.6981    -5.5592 Cl      
  21 C21           -2.9305     3.8400    -1.6773 C.3     
  22 C22           -3.6042     4.0590    -0.3201 C.3     
  23 C23           -2.8371     3.2808     0.7534 C.3     
  24 C24           -1.3743     3.7353     0.7505 C.3     
  25 H25           -0.8038     2.4677    -0.8966 H       
  26 H26            1.3283     2.7042     0.6780 H       
  27 H27            2.4349     5.8937    -0.2970 H       
  28 H28            3.6915     1.8420     0.2378 H       
  29 H29            4.7856     6.5998    -0.4707 H       
  30 H30            9.3719     5.5824    -0.7807 H       
  31 H31           10.4461     5.4543    -3.0164 H       
  32 H32            6.6975     4.1793    -4.6189 H       
  33 H33           -3.4466     4.4256    -2.4380 H       
  34 H34           -2.9757     2.7830    -1.9392 H       
  35 H35           -3.5953     5.1213    -0.0762 H       
  36 H36           -4.6334     3.7027    -0.3627 H       
  37 H37           -3.2780     3.4770     1.7308 H       
  38 H38           -2.8879     2.2138     0.5366 H       
  39 H39           -0.8089     3.1475     1.4736 H       
  40 H40           -1.3204     4.7911     1.0161 H       
@<TRIPOS>BOND
   1    1    2 1
   2    1    3 1
   3    1   24 1
   4    1   25 1
   5    2   21 1
   6    3    4 2
   7    3    5 am
   8    5    6 1
   9    5   26 1
  10    6    7 ar
  11    6    8 ar
  12    7   11 ar
  13    7   27 1
  14    8    9 ar
  15    8   28 1
  16    9   10 ar
  17    9   13 1
  18   10   11 ar
  19   10   12 1
  20   11   29 1
  21   12   14 1
  22   14   15 ar
  23   14   19 ar
  24   15   16 ar
  25   15   30 1
  26   16   17 ar
  27   16   31 1
  28   17   18 ar
  29   17   20 1
  30   18   19 ar
  31   18   32 1
  32   21   22 1
  33   21   33 1
  34   21   34 1
  35   22   23 1
  36   22   35 1
  37   22   36 1
  38   23   24 1
  39   23   37 1
  40   23   38 1
  41   24   39 1
  42   24   40 1

#	End of record

