#	Name: ASD08150402
#	Creating user name:	WinNT
#	Creation time:	15. 06. 2019 21:15

#	Modifying user name:	WinNT
#	Modification time:	15. 06. 2019 21:15

#	Program:	/corina/corina34_cracker 3.40 0067  02.08.2006

@<TRIPOS>MOLECULE
ASD08150402
  50   53    0    0    0
SMALL
NO_CHARGES


@<TRIPOS>ATOM
   1 N1             0.1230     1.2957     0.3036 N.am    
   2 C2             0.1287    -0.0567     0.3103 C.2     
   3 C3             1.3011    -0.7708    -0.0048 C.2     
   4 C4             2.4586    -0.0945    -0.2138 C.2     
   5 C5             2.4753     1.3111    -0.0412 C.ar    
   6 C6             3.6499     2.0473    -0.2867 C.ar    
   7 N7             3.6915     3.3363    -0.0852 N.ar    
   8 C8             2.6504     4.0064     0.4300 C.ar    
   9 C9             1.4459     3.3275     0.7583 C.ar    
  10 C10            1.2937     1.9894     0.3247 C.ar    
  11 C11            0.4909     4.0083     1.5167 C.ar    
  12 C12            0.6580     5.3535     1.8083 C.ar    
  13 C13            1.7803     6.0466     1.3362 C.ar    
  14 C14            2.7568     5.3879     0.6582 C.ar    
  15 O15           -0.8921    -0.6576     0.5935 O.2     
  16 C16           -0.3588     6.0613     2.6240 C.ar    
  17 C17           -1.1783     1.9568     0.1665 C.3     
  18 C18           -1.5361     5.4191     2.9974 C.ar    
  19 C19           -1.4369     2.2730    -1.3080 C.3     
  20 N20           -2.7915     2.8202    -1.4611 N.3     
  21 C21           -2.8723     4.1844    -0.9223 C.3     
  22 C22           -3.2185     2.7831    -2.8662 C.3     
  23 N23           -2.4422     6.0446     3.7221 N.ar    
  24 C24           -2.2737     7.2945     4.1210 C.ar    
  25 C25           -1.1243     8.0016     3.7872 C.ar    
  26 C26           -0.1459     7.3822     3.0340 C.ar    
  27 O27           -3.2359     7.8947     4.8656 O.3     
  28 C28           -4.3944     7.1180     5.1765 C.3     
  29 H29            1.2799    -1.8466    -0.0800 H       
  30 H30            3.3543    -0.6216    -0.5088 H       
  31 H31            4.5301     1.5361    -0.6480 H       
  32 H32           -0.3629     3.4985     1.9381 H       
  33 H33            1.8695     7.1074     1.5116 H       
  34 H34            3.6182     5.9286     0.2939 H       
  35 H35           -1.9619     1.2973     0.5395 H       
  36 H36           -1.1780     2.8825     0.7420 H       
  37 H37           -1.7090     4.3983     2.6899 H       
  38 H38           -0.7079     3.0049    -1.6558 H       
  39 H39           -1.3449     1.3604    -1.8968 H       
  40 H40           -2.1730     4.8279    -1.4561 H       
  41 H41           -3.8857     4.5655    -1.0485 H       
  42 H42           -2.6182     4.1720     0.1376 H       
  43 H43           -3.3003     1.7467    -3.1938 H       
  44 H44           -4.1873     3.2727    -2.9646 H       
  45 H45           -2.4847     3.3022    -3.4828 H       
  46 H46           -0.9958     9.0221     4.1168 H       
  47 H47            0.7571     7.9076     2.7603 H       
  48 H48           -5.0825     7.7154     5.7747 H       
  49 H49           -4.8863     6.8135     4.2528 H       
  50 H50           -4.0981     6.2328     5.7393 H       
@<TRIPOS>BOND
   1    1    2 am
   2    1   10 1
   3    1   17 1
   4    2    3 1
   5    2   15 2
   6    3    4 2
   7    3   29 1
   8    4    5 1
   9    4   30 1
  10    5    6 ar
  11    5   10 ar
  12    6    7 ar
  13    6   31 1
  14    7    8 ar
  15    8    9 ar
  16    8   14 ar
  17    9   10 ar
  18    9   11 ar
  19   11   12 ar
  20   11   32 1
  21   12   13 ar
  22   12   16 1
  23   13   14 ar
  24   13   33 1
  25   14   34 1
  26   16   18 ar
  27   16   26 ar
  28   17   19 1
  29   17   35 1
  30   17   36 1
  31   18   23 ar
  32   18   37 1
  33   19   20 1
  34   19   38 1
  35   19   39 1
  36   20   21 1
  37   20   22 1
  38   21   40 1
  39   21   41 1
  40   21   42 1
  41   22   43 1
  42   22   44 1
  43   22   45 1
  44   23   24 ar
  45   24   25 ar
  46   24   27 1
  47   25   26 ar
  48   25   46 1
  49   26   47 1
  50   27   28 1
  51   28   48 1
  52   28   49 1
  53   28   50 1

#	End of record

