#	Name: ASD01881413
#	Creating user name:	WinNT
#	Creation time:	15. 06. 2019 19:42

#	Modifying user name:	WinNT
#	Modification time:	15. 06. 2019 19:42

#	Program:	/corina/corina34_cracker 3.40 0067  02.08.2006

@<TRIPOS>MOLECULE
ASD01881413
  49   53    0    0    0
SMALL
NO_CHARGES


@<TRIPOS>ATOM
   1 C1             0.3426     0.9538     1.1066 C.3     
   2 Cl2            1.4139     7.9118     1.0487 Cl      
   3 C3             1.3469     9.8012     4.8037 C.ar    
   4 C4             1.6138     8.6152     4.1523 C.ar    
   5 C5             0.0629    10.0739     5.2546 C.ar    
   6 C6            -0.9583     9.1532     5.0515 C.ar    
   7 C7            -0.6981     7.9652     4.4008 C.ar    
   8 C8             0.5918     7.6888     3.9466 C.ar    
   9 C9             0.8752     6.4141     3.2468 C.2     
  10 C10            1.2588     6.4171     1.9178 C.2     
  11 C11            0.7622     5.1807     3.9337 C.2     
  12 C12            1.0196     4.0236     3.2960 C.2     
  13 N13            1.3934     4.0162     1.9826 N.pl3   
  14 C14            1.5208     5.1907     1.2814 C.2     
  15 C15            1.7082     3.0237     1.1052 C.2     
  16 N16            1.9961     3.5867    -0.0399 N.2     
  17 N17            1.8898     4.8657     0.0519 N.2     
  18 C18            1.7226     1.5458     1.3998 C.3     
  19 Cl19          -2.5625     9.4983     5.6183 Cl      
  20 O20           -0.1964    11.2435     5.8959 O.3     
  21 C21            0.8673    12.1953     5.9647 C.3     
  22 C22            0.2855    13.6032     6.1246 C.3     
  23 C23            1.7575    11.8825     7.1714 C.3     
  24 C24            2.8470    12.9522     7.2827 C.3     
  25 O25            2.2384    14.2400     7.3977 O.3     
  26 C26            1.4318    14.6064     6.2764 C.3     
  27 C27            0.1834    -0.5627     1.2317 C.3     
  28 C28           -0.4360     0.3608     2.2826 C.3     
  29 H29           -0.2289     1.4573     0.3269 H       
  30 H30            2.1391    10.5169     4.9670 H       
  31 H31            2.6132     8.4042     3.8016 H       
  32 H32           -1.4917     7.2497     4.2434 H       
  33 H33            0.4683     5.1685     4.9728 H       
  34 H34            0.9301     3.0892     3.8301 H       
  35 H35            1.9707     1.3870     2.4492 H       
  36 H36            2.4682     1.0576     0.7722 H       
  37 H37            1.4594    12.1470     5.0508 H       
  38 H38           -0.3051    13.8555     5.2439 H       
  39 H39           -0.3480    13.6371     7.0110 H       
  40 H40            1.1538    11.8817     8.0789 H       
  41 H41            2.2197    10.9043     7.0393 H       
  42 H42            3.4576    12.7587     8.1646 H       
  43 H43            3.4752    12.9253     6.3924 H       
  44 H44            2.0416    14.6011     5.3728 H       
  45 H45            1.0230    15.6046     6.4333 H       
  46 H46           -0.4932    -1.0569     0.5345 H       
  47 H47            1.0618    -1.1387     1.5229 H       
  48 H48            0.0349     0.3924     3.2651 H       
  49 H49           -1.5201     0.4741     2.2768 H       
@<TRIPOS>BOND
   1    1   27 1
   2    1   18 1
   3    1   28 1
   4    1   29 1
   5    2   10 1
   6    3    4 ar
   7    3    5 ar
   8    3   30 1
   9    4    8 ar
  10    4   31 1
  11    5    6 ar
  12    5   20 1
  13    6    7 ar
  14    6   19 1
  15    7    8 ar
  16    7   32 1
  17    8    9 1
  18    9   10 2
  19    9   11 1
  20   10   14 1
  21   11   12 2
  22   11   33 1
  23   12   13 1
  24   12   34 1
  25   13   14 1
  26   13   15 1
  27   14   17 2
  28   15   16 2
  29   15   18 1
  30   16   17 1
  31   18   35 1
  32   18   36 1
  33   20   21 1
  34   21   22 1
  35   21   23 1
  36   21   37 1
  37   22   26 1
  38   22   38 1
  39   22   39 1
  40   23   24 1
  41   23   40 1
  42   23   41 1
  43   24   25 1
  44   24   42 1
  45   24   43 1
  46   25   26 1
  47   26   44 1
  48   26   45 1
  49   27   28 1
  50   27   46 1
  51   27   47 1
  52   28   48 1
  53   28   49 1

#	End of record

