#	Name: ASD08070134
#	Creating user name:	WinNT
#	Creation time:	15. 06. 2019 21:14

#	Modifying user name:	WinNT
#	Modification time:	15. 06. 2019 21:14

#	Program:	/corina/corina34_cracker 3.40 0067  02.08.2006

@<TRIPOS>MOLECULE
ASD08070134
  49   49    0    0    0
SMALL
NO_CHARGES


@<TRIPOS>ATOM
   1 C1            -1.0378     1.5181     0.6231 C.ar    
   2 C2            -0.8539     0.1579     0.5174 C.ar    
   3 C3            -0.4207    -2.6478     0.2985 C.2     
   4 N4            -1.2829    -4.9186     0.1342 N.am    
   5 C5            -1.0814    -6.3653     0.0213 C.3     
   6 C6            -0.2196    -4.0921     0.1858 C.2     
   7 O7             0.9082    -4.5477     0.1385 O.2     
   8 C8            -2.3128    -7.0028    -0.6254 C.3     
   9 C9            -0.8710    -6.9612     1.4147 C.3     
  10 O10           -2.0645    -6.8047     2.1849 O.3     
  11 C11            0.6442    -1.8201     0.3501 C.2     
  12 C12            0.4420    -0.3685     0.4634 C.ar    
  13 C13            1.5446     0.4921     0.5171 C.ar    
  14 C14            0.0607     2.3685     0.6760 C.ar    
  15 C15            1.3498     1.8507     0.6227 C.ar    
  16 O16           -0.1260     3.7089     0.7802 O.3     
  17 C17            1.0459     4.5253     0.8298 C.3     
  18 C18            0.6387     5.9955     0.9462 C.3     
  19 C19           -1.9740    -7.3309     3.5104 C.3     
  20 C20           -2.4626    -6.4849    -2.0572 C.3     
  21 C21           -1.2805    -6.9673    -2.9004 C.3     
  22 C22           -3.7667    -7.0144    -2.6572 C.3     
  23 H23           -2.0372     1.9257     0.6603 H       
  24 H24           -1.7079    -0.5019     0.4767 H       
  25 H25           -1.4214    -2.2437     0.3404 H       
  26 H26           -2.1816    -4.5556     0.1719 H       
  27 H27           -0.2041    -6.5630    -0.5946 H       
  28 H28           -2.1949    -8.0863    -0.6414 H       
  29 H29           -3.2012    -6.7425    -0.0500 H       
  30 H30           -0.6332    -8.0211     1.3245 H       
  31 H31           -0.0486    -6.4452     1.9102 H       
  32 H32            1.6448    -2.2243     0.3082 H       
  33 H33            2.5465     0.0908     0.4761 H       
  34 H34            2.1999     2.5156     0.6639 H       
  35 H35            1.6474     4.2453     1.6946 H       
  36 H36            1.6283     4.3805    -0.0801 H       
  37 H37            0.0562     6.1402     1.8561 H       
  38 H38            1.5325     6.6182     0.9840 H       
  39 H39            0.0372     6.2755     0.0813 H       
  40 H40           -2.9195    -7.1730     4.0293 H       
  41 H41           -1.7591    -8.3985     3.4636 H       
  42 H42           -1.1745    -6.8225     4.0493 H       
  43 H43           -2.4825    -5.3951    -2.0492 H       
  44 H44           -1.2606    -8.0571    -2.9084 H       
  45 H45           -1.3872    -6.5983    -3.9204 H       
  46 H46           -0.3515    -6.5901    -2.4729 H       
  47 H47           -4.6006    -6.7444    -2.0094 H       
  48 H48           -3.9167    -6.5765    -3.6441 H       
  49 H49           -3.7117    -8.0994    -2.7457 H       
@<TRIPOS>BOND
   1    1    2 ar
   2    1   14 ar
   3    1   23 1
   4    2   12 ar
   5    2   24 1
   6    3    6 1
   7    3   11 2
   8    3   25 1
   9    4    6 am
  10    4    5 1
  11    4   26 1
  12    5    8 1
  13    5    9 1
  14    5   27 1
  15    6    7 2
  16    8   20 1
  17    8   28 1
  18    8   29 1
  19    9   10 1
  20    9   30 1
  21    9   31 1
  22   10   19 1
  23   11   12 1
  24   11   32 1
  25   12   13 ar
  26   13   15 ar
  27   13   33 1
  28   14   15 ar
  29   14   16 1
  30   15   34 1
  31   16   17 1
  32   17   18 1
  33   17   35 1
  34   17   36 1
  35   18   37 1
  36   18   38 1
  37   18   39 1
  38   19   40 1
  39   19   41 1
  40   19   42 1
  41   20   21 1
  42   20   22 1
  43   20   43 1
  44   21   44 1
  45   21   45 1
  46   21   46 1
  47   22   47 1
  48   22   48 1
  49   22   49 1

#	End of record

