#	Name: ASD01885639
#	Creating user name:	WinNT
#	Creation time:	15. 06. 2019 19:49

#	Modifying user name:	WinNT
#	Modification time:	15. 06. 2019 19:49

#	Program:	/corina/corina34_cracker 3.40 0067  02.08.2006

@<TRIPOS>MOLECULE
ASD01885639
  34   36    0    0    0
SMALL
NO_CHARGES


@<TRIPOS>ATOM
   1 C1            -0.0170     1.4042     0.0098 C.ar    
   2 C2             1.2139     2.1084     0.0018 C.ar    
   3 C3             1.1963     3.5257     0.0097 C.ar    
   4 C4            -0.0386     4.1601     0.0249 C.ar    
   5 C5            -1.2080     3.3919     0.0319 C.ar    
   6 N6            -1.1700     2.0727     0.0299 N.ar    
   7 C7             0.0021    -0.0041     0.0020 C.ar    
   8 C8             1.1921    -0.6627    -0.0129 C.ar    
   9 C9             2.3994     0.0338    -0.0203 C.ar    
  10 C10            2.4204     1.3961    -0.0132 C.ar    
  11 C11            2.4554     4.3051     0.0024 C.ar    
  12 C12            2.7926     5.1012     1.0967 C.ar    
  13 C13            3.9674     5.8248     1.0843 C.ar    
  14 C14            4.8106     5.7628    -0.0108 C.ar    
  15 C15            4.4826     4.9758    -1.1002 C.ar    
  16 C16            3.3129     4.2418    -1.0977 C.ar    
  17 C17           -2.5229     4.0772     0.0486 C.2     
  18 N18           -3.6599     3.3535     0.0556 N.am    
  19 O19           -2.5753     5.2910     0.0561 O.2     
  20 C20            1.2055    -2.1696    -0.0211 C.3     
  21 Cl21           2.9022     3.2544    -2.4653 Cl      
  22 H22           -0.0961     5.2386     0.0268 H       
  23 H23           -0.9245    -0.5588     0.0083 H       
  24 H24            3.3303    -0.5135    -0.0315 H       
  25 H25            3.3624     1.9243    -0.0193 H       
  26 H26            2.1353     5.1514     1.9522 H       
  27 H27            4.2292     6.4415     1.9314 H       
  28 H28            5.7287     6.3315    -0.0154 H       
  29 H29            5.1448     4.9318    -1.9522 H       
  30 H30           -3.6180     2.3844     0.0496 H       
  31 H31           -4.5200     3.8018     0.0665 H       
  32 H32            1.1989    -2.5274    -1.0507 H       
  33 H33            2.1036    -2.5277     0.4822 H       
  34 H34            0.3238    -2.5436     0.4992 H       
@<TRIPOS>BOND
   1    1    7 ar
   2    1    2 ar
   3    1    6 ar
   4    2    3 ar
   5    2   10 ar
   6    3   11 1
   7    3    4 ar
   8    4    5 ar
   9    4   22 1
  10    5   17 1
  11    5    6 ar
  12    7    8 ar
  13    7   23 1
  14    8    9 ar
  15    8   20 1
  16    9   10 ar
  17    9   24 1
  18   10   25 1
  19   11   12 ar
  20   11   16 ar
  21   12   13 ar
  22   12   26 1
  23   13   14 ar
  24   13   27 1
  25   14   15 ar
  26   14   28 1
  27   15   16 ar
  28   15   29 1
  29   16   21 1
  30   17   18 am
  31   17   19 2
  32   18   30 1
  33   18   31 1
  34   20   32 1
  35   20   33 1
  36   20   34 1

#	End of record

