#	Name: ASD00840656
#	Creating user name:	WinNT
#	Creation time:	15. 06. 2019 18:39

#	Modifying user name:	WinNT
#	Modification time:	15. 06. 2019 18:39

#	Program:	/corina/corina34_cracker 3.40 0067  02.08.2006

@<TRIPOS>MOLECULE
ASD00840656
  97  102    0    0    0
SMALL
NO_CHARGES


@<TRIPOS>ATOM
   1 N1             0.9769     1.4222    -0.8225 N.ar    
   2 C2             1.2531     0.1317    -0.9077 C.ar    
   3 C3             1.1964    -0.6801     0.2182 C.ar    
   4 C4             0.8461    -0.1209     1.4345 C.ar    
   5 C5             0.5635     1.2375     1.4818 C.ar    
   6 C6             0.6399     1.9840     0.3231 C.ar    
   7 C7             1.5115    -2.1503     0.1162 C.3     
   8 C8             1.2552    -2.8409     1.4387 C.2     
   9 C9             0.6853    -2.7986    -0.9964 C.3     
  10 C10           -0.7767    -2.5130    -0.7679 C.2     
  11 N11           -1.7038    -3.0475    -1.5872 N.am    
  12 O12           -1.1189    -1.8021     0.1532 O.2     
  13 C13           -3.1213    -2.6863    -1.4501 C.3     
  14 C14           -3.9460    -3.9699    -1.3116 C.3     
  15 C15           -3.6445    -4.8952    -2.4927 C.3     
  16 C16           -2.1609    -5.2708    -2.4828 C.3     
  17 C17           -1.3153    -3.9977    -2.6383 C.3     
  18 N18           -4.4584    -6.1130    -2.3805 N.3     
  19 C19           -4.2840    -6.9733    -3.5591 C.3     
  20 C20           -5.0840    -8.2640    -3.3680 C.3     
  21 N21           -6.5016    -7.9333    -3.1661 N.3     
  22 C22           -6.6760    -7.0729    -1.9875 C.3     
  23 C23           -5.8759    -5.7822    -2.1786 C.3     
  24 C24           -7.3155    -9.1511    -3.0539 C.3     
  25 O25            0.1914    -2.9193     2.0158 O.2     
  26 N26            2.4267    -3.3514     1.8529 N.am    
  27 C27            2.9891    -2.3599    -0.1261 C.ar    
  28 C28            3.4634    -3.0891     0.9617 C.ar    
  29 C29            3.8283    -1.9796    -1.1424 C.ar    
  30 C30            5.1833    -2.3259    -1.0926 C.ar    
  31 C31            5.6673    -3.0588    -0.0022 C.ar    
  32 C32            4.8136    -3.4361     1.0122 C.ar    
  33 F33            6.9738    -3.3980     0.0553 F       
  34 C34            2.3394    -5.8972     2.8950 C.ar    
  35 C35            1.0856    -6.3224     2.4809 C.ar    
  36 C36            3.3724    -6.8072     3.0120 C.ar    
  37 C37            3.1574    -8.1405     2.7165 C.ar    
  38 C38            1.9084    -8.5669     2.3036 C.ar    
  39 C39            0.8723    -7.6612     2.1854 C.ar    
  40 H40            1.7430    -9.6090     2.0733 H       
  41 O41            0.0678    -5.4293     2.3654 O.3     
  42 C42           -1.1958    -5.9380     1.9338 C.3     
  43 C43           -2.2094    -4.7940     1.8642 C.3     
  44 C44           -8.7285    -8.7800    -2.5995 C.3     
  45 C45           -9.5762   -10.0483    -2.4827 C.3     
  46 O46            1.5949    -0.4046    -2.1062 O.3     
  47 C47            2.0570    -0.2833    -4.4752 C.3     
  48 C48            1.5267     0.4559    -3.2451 C.3     
  49 S49            2.6163    -4.1967     3.2642 S.o2    
  50 O50            3.9872    -4.0814     3.6200 O.2     
  51 O51            1.5550    -3.7937     4.1189 O.2     
  52 C52            6.0677    -1.9342    -2.1486 C.1     
  53 N53            6.7692    -1.6235    -2.9863 N.1     
  54 H54            0.7933    -0.7274     2.3265 H       
  55 H55            0.2866     1.7052     2.4151 H       
  56 H56            0.4214     3.0412     0.3545 H       
  57 H57            0.9891    -2.3896    -1.9600 H       
  58 H58            0.8502    -3.8760    -0.9907 H       
  59 H59           -3.2566    -2.0675    -0.5631 H       
  60 H60           -3.4457    -2.1373    -2.3342 H       
  61 H61           -3.6841    -4.4718    -0.3801 H       
  62 H62           -5.0073    -3.7216    -1.3056 H       
  63 H63           -3.8834    -4.3836    -3.4250 H       
  64 H64           -1.9158    -5.7605    -1.5404 H       
  65 H65           -1.9517    -5.9484    -3.3106 H       
  66 H66           -1.4936    -3.5582    -3.6197 H       
  67 H67           -0.2591    -4.2455    -2.5331 H       
  68 H68           -4.6422    -6.4515    -4.4465 H       
  69 H69           -3.2280    -7.2146    -3.6802 H       
  70 H70           -4.9795    -8.8911    -4.2534 H       
  71 H71           -4.7078    -8.7994    -2.4963 H       
  72 H72           -7.7320    -6.8317    -1.8664 H       
  73 H73           -6.3178    -7.5948    -1.1001 H       
  74 H74           -5.9805    -5.1551    -1.2932 H       
  75 H75           -6.2522    -5.2468    -3.0503 H       
  76 H76           -7.3640    -9.6462    -4.0238 H       
  77 H77           -6.8642    -9.8238    -2.3246 H       
  78 H78            3.4443    -1.4148    -1.9790 H       
  79 H79            5.1922    -4.0014     1.8509 H       
  80 H80            4.3487    -6.4766     3.3344 H       
  81 H81            3.9663    -8.8502     2.8080 H       
  82 H82           -0.1031    -7.9948     1.8635 H       
  83 H83           -1.0883    -6.3887     0.9472 H       
  84 H84           -1.5453    -6.6904     2.6408 H       
  85 H85           -2.3169    -4.3433     2.8508 H       
  86 H86           -1.8599    -4.0416     1.1571 H       
  87 H87           -3.1733    -5.1821     1.5349 H       
  88 H88           -8.6800    -8.2848    -1.6297 H       
  89 H89           -9.1798    -8.1072    -3.3288 H       
  90 H90           -9.6247   -10.5435    -3.4526 H       
  91 H91           -9.1250   -10.7211    -1.7535 H       
  92 H92          -10.5829    -9.7840    -2.1590 H       
  93 H93            3.0616    -0.6539    -4.2713 H       
  94 H94            1.4002    -1.1219    -4.7063 H       
  95 H95            2.0871     0.3994    -5.3244 H       
  96 H96            0.4913     0.7504    -3.4165 H       
  97 H97            2.1322     1.3443    -3.0659 H       
@<TRIPOS>BOND
   1    1    2 ar
   2    1    6 ar
   3    2    3 ar
   4    2   46 1
   5    3    4 ar
   6    3    7 1
   7    4    5 ar
   8    4   54 1
   9    5    6 ar
  10    5   55 1
  11    6   56 1
  12    7    8 1
  13    7    9 1
  14    7   27 1
  15    8   25 2
  16    8   26 am
  17    9   10 1
  18    9   57 1
  19    9   58 1
  20   10   11 am
  21   10   12 2
  22   11   13 1
  23   11   17 1
  24   13   14 1
  25   13   59 1
  26   13   60 1
  27   14   15 1
  28   14   61 1
  29   14   62 1
  30   15   16 1
  31   15   18 1
  32   15   63 1
  33   16   17 1
  34   16   64 1
  35   16   65 1
  36   17   66 1
  37   17   67 1
  38   18   19 1
  39   18   23 1
  40   19   20 1
  41   19   68 1
  42   19   69 1
  43   20   21 1
  44   20   70 1
  45   20   71 1
  46   21   22 1
  47   21   24 1
  48   22   23 1
  49   22   72 1
  50   22   73 1
  51   23   74 1
  52   23   75 1
  53   24   44 1
  54   24   76 1
  55   24   77 1
  56   26   49 am
  57   26   28 1
  58   27   28 ar
  59   27   29 ar
  60   28   32 ar
  61   29   30 ar
  62   29   78 1
  63   30   31 ar
  64   30   52 1
  65   31   32 ar
  66   31   33 1
  67   32   79 1
  68   34   35 ar
  69   34   36 ar
  70   34   49 1
  71   35   41 1
  72   35   39 ar
  73   36   37 ar
  74   36   80 1
  75   37   38 ar
  76   37   81 1
  77   38   39 ar
  78   38   40 1
  79   39   82 1
  80   41   42 1
  81   42   43 1
  82   42   83 1
  83   42   84 1
  84   43   85 1
  85   43   86 1
  86   43   87 1
  87   44   45 1
  88   44   88 1
  89   44   89 1
  90   45   90 1
  91   45   91 1
  92   45   92 1
  93   46   48 1
  94   47   48 1
  95   47   93 1
  96   47   94 1
  97   47   95 1
  98   48   96 1
  99   48   97 1
 100   49   50 2
 101   49   51 2
 102   52   53 3

#	End of record

