#	Name: ASD04880093
#	Creating user name:	WinNT
#	Creation time:	15. 06. 2019 20:52

#	Modifying user name:	WinNT
#	Modification time:	15. 06. 2019 20:52

#	Program:	/corina/corina34_cracker 3.40 0067  02.08.2006

@<TRIPOS>MOLECULE
ASD04880093
  47   49    0    0    0
SMALL
NO_CHARGES


@<TRIPOS>ATOM
   1 C1            -0.0144     1.2118     0.0087 C.2     
   2 O2             0.0581    -0.0018    -0.0139 O.2     
   3 C3             1.2184     2.0264    -0.0193 C.ar    
   4 C4             2.4681     1.4104     0.0724 C.ar    
   5 C5             3.6147     2.1766     0.0451 C.ar    
   6 C6             3.5285     3.5527    -0.0728 C.ar    
   7 C7             2.2935     4.1693    -0.1641 C.ar    
   8 C8             1.1388     3.4144    -0.1434 C.ar    
   9 C9             4.9644     1.5136     0.1445 C.3     
  10 C10            5.4676     1.1686    -1.2586 C.3     
  11 N11           -1.2192     1.8141     0.0538 N.am    
  12 N12           -1.4361     3.1832     0.1953 N.2     
  13 C13           -2.6797     3.5203     0.2112 C.2     
  14 C14           -3.5397     2.2851     0.0667 C.3     
  15 C15           -2.5204     1.1340    -0.0449 C.3     
  16 C16           -3.1860     4.8979     0.3494 C.ar    
  17 C17           -2.2909     5.9638     0.4765 C.ar    
  18 C18           -2.7709     7.2531     0.6058 C.ar    
  19 C19           -4.1445     7.4883     0.6099 C.ar    
  20 C20           -5.0331     6.4309     0.4838 C.ar    
  21 C21           -4.5614     5.1418     0.3481 C.ar    
  22 O22           -4.6147     8.7573     0.7381 O.3     
  23 C23           -6.0336     8.9269     0.7345 C.3     
  24 O24           -1.9028     8.2926     0.7296 O.3     
  25 C25           -0.5088     7.9786     0.7180 C.3     
  26 H26            2.5367     0.3366     0.1648 H       
  27 H27            4.4294     4.1480    -0.0933 H       
  28 H28            2.2332     5.2438    -0.2555 H       
  29 H29            0.1754     3.8966    -0.2193 H       
  30 H30            5.6681     2.1925     0.6261 H       
  31 H31            4.8784     0.6010     0.7342 H       
  32 H32            6.4438     0.6890    -1.1868 H       
  33 H33            4.7639     0.4897    -1.7403 H       
  34 H34            5.5536     2.0812    -1.8484 H       
  35 H35           -4.1733     2.1556     0.9441 H       
  36 H36           -4.1450     2.3443    -0.8378 H       
  37 H37           -2.6161     0.6263    -1.0047 H       
  38 H38           -2.6484     0.4297     0.7772 H       
  39 H39           -1.2266     5.7802     0.4739 H       
  40 H40           -6.0968     6.6177     0.4875 H       
  41 H41           -5.2555     4.3207     0.2456 H       
  42 H42           -6.4684     8.3683     1.5633 H       
  43 H43           -6.2734     9.9846     0.8437 H       
  44 H44           -6.4413     8.5572    -0.2064 H       
  45 H45            0.0711     8.8954     0.8243 H       
  46 H46           -0.2808     7.3065     1.5453 H       
  47 H47           -0.2533     7.4943    -0.2245 H       
@<TRIPOS>BOND
   1    1    2 2
   2    1    3 1
   3    1   11 am
   4    3    4 ar
   5    3    8 ar
   6    4    5 ar
   7    4   26 1
   8    5    6 ar
   9    5    9 1
  10    6    7 ar
  11    6   27 1
  12    7    8 ar
  13    7   28 1
  14    8   29 1
  15    9   10 1
  16    9   30 1
  17    9   31 1
  18   10   32 1
  19   10   33 1
  20   10   34 1
  21   11   12 1
  22   11   15 1
  23   12   13 2
  24   13   14 1
  25   13   16 1
  26   14   15 1
  27   14   35 1
  28   14   36 1
  29   15   37 1
  30   15   38 1
  31   16   17 ar
  32   16   21 ar
  33   17   18 ar
  34   17   39 1
  35   18   19 ar
  36   18   24 1
  37   19   20 ar
  38   19   22 1
  39   20   21 ar
  40   20   40 1
  41   21   41 1
  42   22   23 1
  43   23   42 1
  44   23   43 1
  45   23   44 1
  46   24   25 1
  47   25   45 1
  48   25   46 1
  49   25   47 1

#	End of record

