#	Name: ASD03320127
#	Creating user name:	WinNT
#	Creation time:	15. 06. 2019 20:36

#	Modifying user name:	WinNT
#	Modification time:	15. 06. 2019 20:36

#	Program:	/corina/corina34_cracker 3.40 0067  02.08.2006

@<TRIPOS>MOLECULE
ASD03320127
  18   18    0    0    0
SMALL
NO_CHARGES


@<TRIPOS>ATOM
   1 N1            -0.0169     1.3958     0.0097 N.pl3   
   2 C2             0.0021    -0.0041     0.0020 C.ar    
   3 C3             1.2141    -0.6819    -0.0132 C.ar    
   4 C4             1.2330    -2.0624    -0.0208 C.ar    
   5 C5             0.0396    -2.7734    -0.0128 C.ar    
   6 C6            -1.1726    -2.0952     0.0029 C.ar    
   7 C7            -1.1910    -0.7146     0.0154 C.ar    
   8 S8             0.0635    -4.5353    -0.0230 S.3     
   9 C9            -1.6982    -4.9673    -0.0076 C.3     
  10 F10           -2.2966    -4.4444     1.1437 F       
  11 F11           -2.3197    -4.4314    -1.1407 F       
  12 Cl12          -1.8771    -6.7614    -0.0160 Cl      
  13 H13            0.8164     1.8922     0.0044 H       
  14 H14           -0.8634     1.8694     0.0163 H       
  15 H15            2.1418    -0.1290    -0.0194 H       
  16 H16            2.1756    -2.5895    -0.0333 H       
  17 H17           -2.1005    -2.6477     0.0092 H       
  18 H18           -2.1334    -0.1873     0.0314 H       
@<TRIPOS>BOND
   1    1    2 1
   2    1   13 1
   3    1   14 1
   4    2    3 ar
   5    2    7 ar
   6    3    4 ar
   7    3   15 1
   8    4    5 ar
   9    4   16 1
  10    5    6 ar
  11    5    8 1
  12    6    7 ar
  13    6   17 1
  14    7   18 1
  15    8    9 1
  16    9   10 1
  17    9   11 1
  18    9   12 1

#	End of record

