#	Name: ASD01816023
#	Creating user name:	WinNT
#	Creation time:	15. 06. 2019 19:34

#	Modifying user name:	WinNT
#	Modification time:	15. 06. 2019 19:34

#	Program:	/corina/corina34_cracker 3.40 0067  02.08.2006

@<TRIPOS>MOLECULE
ASD01816023
  56   61    0    0    0
SMALL
NO_CHARGES


@<TRIPOS>ATOM
   1 C1            -0.0167     1.3813     0.0096 C.ar    
   2 C2             0.0021    -0.0041     0.0020 C.ar    
   3 C3             1.1984    -0.6909    -0.0131 C.ar    
   4 C4             2.4015     0.0059    -0.0209 C.ar    
   5 C5             2.3790     1.4106    -0.0132 C.ar    
   6 C6             1.1663     2.0916     0.0022 C.ar    
   7 N7             3.6053    -0.6772    -0.0356 N.pl3   
   8 C8             4.7970    -0.0586    -0.0433 C.2     
   9 C9             4.9000     1.3103    -0.0373 C.2     
  10 C10            3.6670     2.1301    -0.0217 C.2     
  11 C11            5.9971     2.2729    -0.0432 C.2     
  12 N12            5.4245     3.4960    -0.0323 N.am    
  13 N13            4.0323     3.3799    -0.0195 N.2     
  14 C14            6.1264     4.7082    -0.0333 C.ar    
  15 O15            7.1914     2.0229    -0.0548 O.2     
  16 C16            3.5779    -2.1419    -0.0427 C.3     
  17 C17            6.5546     5.2634    -1.2317 C.ar    
  18 C18            7.2466     6.4588    -1.2297 C.ar    
  19 C19            7.5142     7.1036    -0.0359 C.ar    
  20 C20            7.0900     6.5550     1.1603 C.ar    
  21 C21            6.3912     5.3614     1.1656 C.ar    
  22 F22            5.9763     4.8253     2.3342 F       
  23 C23            3.5552    -2.6371    -1.4659 C.ar    
  24 C24            4.7355    -2.8894    -2.1386 C.ar    
  25 N25            4.7274    -3.3236    -3.3842 N.ar    
  26 C26            3.5952    -3.5329    -4.0330 C.ar    
  27 C27            2.3879    -3.3016    -3.4272 C.ar    
  28 C28            2.3482    -2.8513    -2.1171 C.ar    
  29 C29            3.6407    -4.0372    -5.4614 C.3     
  30 C30            3.1496    -5.4864    -5.4796 C.3     
  31 C31            1.6384    -5.5469    -5.5820 C.3     
  32 C32            0.9059    -5.0474    -4.3524 C.3     
  33 C33            1.0963    -3.5378    -4.1799 C.3     
  34 H34           -0.9602     1.9068     0.0170 H       
  35 H35           -0.9289    -0.5516     0.0083 H       
  36 H36            1.2004    -1.7709    -0.0186 H       
  37 H37            1.1506     3.1715     0.0077 H       
  38 H38            5.6983    -0.6536    -0.0540 H       
  39 H39            4.4657    -2.5244     0.4609 H       
  40 H40            2.6861    -2.4912     0.4778 H       
  41 H41            6.3471     4.7607    -2.1648 H       
  42 H42            7.5796     6.8905    -2.1620 H       
  43 H43            8.0561     8.0378    -0.0379 H       
  44 H44            7.3009     7.0609     2.0909 H       
  45 H45            5.6785    -2.7284    -1.6374 H       
  46 H46            1.4072    -2.6648    -1.6210 H       
  47 H47            2.9933    -3.4231    -6.0874 H       
  48 H48            4.6643    -3.9925    -5.8332 H       
  49 H49            3.5873    -6.0019    -6.3345 H       
  50 H50            3.4664    -5.9832    -4.5625 H       
  51 H51            1.3257    -4.9485    -6.4376 H       
  52 H52            1.3454    -6.5812    -5.7626 H       
  53 H53           -0.1572    -5.2651    -4.4554 H       
  54 H54            1.2924    -5.5604    -3.4718 H       
  55 H55            0.2611    -3.1248    -3.6142 H       
  56 H56            1.1491    -3.0604    -5.1584 H       
@<TRIPOS>BOND
   1    1    2 ar
   2    1    6 ar
   3    1   34 1
   4    2    3 ar
   5    2   35 1
   6    3    4 ar
   7    3   36 1
   8    4    5 ar
   9    4    7 1
  10    5    6 ar
  11    5   10 1
  12    6   37 1
  13    7    8 1
  14    7   16 1
  15    8    9 2
  16    8   38 1
  17    9   10 1
  18    9   11 1
  19   10   13 2
  20   11   12 am
  21   11   15 2
  22   12   13 1
  23   12   14 1
  24   14   17 ar
  25   14   21 ar
  26   16   23 1
  27   16   39 1
  28   16   40 1
  29   17   18 ar
  30   17   41 1
  31   18   19 ar
  32   18   42 1
  33   19   20 ar
  34   19   43 1
  35   20   21 ar
  36   20   44 1
  37   21   22 1
  38   23   24 ar
  39   23   28 ar
  40   24   25 ar
  41   24   45 1
  42   25   26 ar
  43   26   27 ar
  44   26   29 1
  45   27   28 ar
  46   27   33 1
  47   28   46 1
  48   29   30 1
  49   29   47 1
  50   29   48 1
  51   30   31 1
  52   30   49 1
  53   30   50 1
  54   31   32 1
  55   31   51 1
  56   31   52 1
  57   32   33 1
  58   32   53 1
  59   32   54 1
  60   33   55 1
  61   33   56 1

#	End of record

