#	Name: ASD01840463
#	Creating user name:	WinNT
#	Creation time:	15. 06. 2019 19:37

#	Modifying user name:	WinNT
#	Modification time:	15. 06. 2019 19:37

#	Program:	/corina/corina34_cracker 3.40 0067  02.08.2006

@<TRIPOS>MOLECULE
ASD01840463
  51   54    0    0    0
SMALL
NO_CHARGES


@<TRIPOS>ATOM
   1 C1             0.2611     1.7552    -0.9980 C.ar    
   2 C2             0.3841     0.5320    -1.6195 C.ar    
   3 N3             1.4990    -0.1677    -1.4965 N.ar    
   4 N4             2.4999     0.2427    -0.8111 N.ar    
   5 C5             1.3546     2.2267    -0.2364 C.ar    
   6 C6             1.5104     3.4570     0.5171 C.2     
   7 C7             2.4928     1.4121    -0.1670 C.ar    
   8 S8             3.7250     2.1824     0.8223 S.3     
   9 C9             2.7118     3.5783     1.1344 C.2     
  10 C10           -0.9999     2.5697    -1.1313 C.3     
  11 C11           -0.7562    -0.0106    -2.4419 C.3     
  12 N12            0.5179     4.4243     0.5985 N.pl3   
  13 C13            3.1102     4.7236     1.9514 C.2     
  14 O14            2.3404     5.6527     2.1138 O.2     
  15 N15            4.3297     4.7507     2.5248 N.am    
  16 C16            4.7288     5.8982     3.3434 C.3     
  17 C17            4.2586     5.7066     4.8000 C.3     
  18 C18            5.5530     5.6965     5.6413 C.3     
  19 N19            6.5416     6.4374     4.8163 N.3     
  20 C20            6.2678     5.9877     3.4271 C.3     
  21 C21            7.8504     6.1209     5.1971 C.ar    
  22 C22            8.2979     4.8086     5.1209 C.ar    
  23 C23            9.5898     4.4970     5.4970 C.ar    
  24 C24           10.4399     5.4944     5.9512 C.ar    
  25 C25            9.9936     6.8054     6.0281 C.ar    
  26 C26            8.7041     7.1198     5.6461 C.ar    
  27 O27           11.7118     5.1867     6.3218 O.3     
  28 C28           12.5325     6.2631     6.7798 C.3     
  29 F29           11.9450     6.8514     7.9049 F       
  30 F30           13.7987     5.7732     7.1172 F       
  31 F31           12.6573     7.2185     5.7655 F       
  32 H32           -1.6441     2.3852    -0.2716 H       
  33 H33           -0.7456     3.6287    -1.1742 H       
  34 H34           -1.5220     2.2841    -2.0445 H       
  35 H35           -0.6493     0.3210    -3.4747 H       
  36 H36           -0.7433    -1.1000    -2.4068 H       
  37 H37           -1.7008     0.3547    -2.0389 H       
  38 H38           -0.4028     4.1923     0.4002 H       
  39 H39            0.7452     5.3322     0.8537 H       
  40 H40            4.9430     4.0104     2.3954 H       
  41 H41            4.3164     6.8187     2.9304 H       
  42 H42            3.6169     6.5341     5.1026 H       
  43 H43            3.7309     4.7588     4.9060 H       
  44 H44            5.3928     6.2060     6.5915 H       
  45 H45            5.8891     4.6733     5.8096 H       
  46 H46            6.7157     5.0101     3.2488 H       
  47 H47            6.6457     6.7164     2.7101 H       
  48 H48            7.6359     4.0317     4.7679 H       
  49 H49            9.9380     3.4764     5.4378 H       
  50 H50           10.6561     7.5813     6.3822 H       
  51 H51            8.3583     8.1414     5.7011 H       
@<TRIPOS>BOND
   1    1    2 ar
   2    1    5 ar
   3    1   10 1
   4    2   11 1
   5    2    3 ar
   6    3    4 ar
   7    4    7 ar
   8    5    7 ar
   9    5    6 1
  10    6    9 2
  11    6   12 1
  12    7    8 1
  13    8    9 1
  14    9   13 1
  15   10   32 1
  16   10   33 1
  17   10   34 1
  18   11   35 1
  19   11   36 1
  20   11   37 1
  21   12   38 1
  22   12   39 1
  23   13   14 2
  24   13   15 am
  25   15   16 1
  26   15   40 1
  27   16   17 1
  28   16   20 1
  29   16   41 1
  30   17   18 1
  31   17   42 1
  32   17   43 1
  33   18   19 1
  34   18   44 1
  35   18   45 1
  36   19   20 1
  37   19   21 1
  38   20   46 1
  39   20   47 1
  40   21   22 ar
  41   21   26 ar
  42   22   23 ar
  43   22   48 1
  44   23   24 ar
  45   23   49 1
  46   24   25 ar
  47   24   27 1
  48   25   26 ar
  49   25   50 1
  50   26   51 1
  51   27   28 1
  52   28   29 1
  53   28   30 1
  54   28   31 1

#	End of record

