#	Name: ASD04430075
#	Creating user name:	WinNT
#	Creation time:	15. 06. 2019 20:49

#	Modifying user name:	WinNT
#	Modification time:	15. 06. 2019 20:49

#	Program:	/corina/corina34_cracker 3.40 0067  02.08.2006

@<TRIPOS>MOLECULE
ASD04430075
  40   43    0    0    0
SMALL
NO_CHARGES


@<TRIPOS>ATOM
   1 N1            -0.0824     1.5272     0.0076 N.am    
   2 C2            -0.1347     0.1718     0.0474 C.2     
   3 N3             0.9205    -0.5822    -0.0556 N.2     
   4 C4             2.1488    -0.0647    -0.2102 C.2     
   5 C5             2.3028     1.3299    -0.2627 C.2     
   6 C6             1.1043     2.1603    -0.1451 C.2     
   7 N7             3.3943    -0.5978    -0.3406 N.pl3   
   8 N8             4.3102     0.4537    -0.4724 N.2     
   9 C9             3.6756     1.5930    -0.4276 C.2     
  10 O10            1.1716     3.3761    -0.1836 O.2     
  11 C11           -1.4772    -0.4908     0.2193 C.3     
  12 C12           -1.3171    -2.0073     0.0953 C.3     
  13 C13            3.7066    -1.9635    -0.3422 C.ar    
  14 C14            3.1840    -2.7975     0.6365 C.ar    
  15 C15            3.4937    -4.1450     0.6319 C.ar    
  16 C16            4.3242    -4.6621    -0.3467 C.ar    
  17 C17            4.8468    -3.8336    -1.3227 C.ar    
  18 C18            4.5359    -2.4871    -1.3272 C.ar    
  19 C19           -2.6514    -2.7057     0.4111 C.3     
  20 C20           -3.0540    -3.4821    -0.8597 C.3     
  21 C21           -1.7158    -3.7098    -1.6056 C.3     
  22 C22           -0.9555    -2.3836    -1.3564 C.3     
  23 Cl23           5.1920    -1.4479    -2.5533 Cl      
  24 Cl24           2.8406    -5.1890     1.8555 Cl      
  25 H25           -0.8993     2.0445     0.0849 H       
  26 H26            4.1269     2.5712    -0.5037 H       
  27 H27           -1.8794    -0.2470     1.2026 H       
  28 H28           -2.1602    -0.1333    -0.5514 H       
  29 H29           -0.5419    -2.3576     0.7768 H       
  30 H30            2.5364    -2.3943     1.4009 H       
  31 H31            4.5650    -5.7149    -0.3480 H       
  32 H32            5.4952    -4.2400    -2.0848 H       
  33 H33           -2.5234    -3.3956     1.2453 H       
  34 H34           -3.4129    -1.9643     0.6527 H       
  35 H35           -3.5106    -4.4359    -0.5955 H       
  36 H36           -3.7346    -2.8883    -1.4699 H       
  37 H37           -1.1732    -4.5525    -1.1771 H       
  38 H38           -1.8884    -3.8618    -2.6711 H       
  39 H39           -1.2972    -1.6124    -2.0468 H       
  40 H40            0.1193    -2.5358    -1.4546 H       
@<TRIPOS>BOND
   1    1    2 1
   2    1    6 am
   3    1   25 1
   4    2    3 2
   5    2   11 1
   6    3    4 1
   7    4    5 2
   8    4    7 1
   9    5    6 1
  10    5    9 1
  11    6   10 2
  12    7    8 1
  13    7   13 1
  14    8    9 2
  15    9   26 1
  16   11   12 1
  17   11   27 1
  18   11   28 1
  19   12   19 1
  20   12   22 1
  21   12   29 1
  22   13   14 ar
  23   13   18 ar
  24   14   15 ar
  25   14   30 1
  26   15   16 ar
  27   15   24 1
  28   16   17 ar
  29   16   31 1
  30   17   18 ar
  31   17   32 1
  32   18   23 1
  33   19   20 1
  34   19   33 1
  35   19   34 1
  36   20   21 1
  37   20   35 1
  38   20   36 1
  39   21   22 1
  40   21   37 1
  41   21   38 1
  42   22   39 1
  43   22   40 1

#	End of record

