#	Name: ASD06610056
#	Creating user name:	WinNT
#	Creation time:	15. 06. 2019 21:07

#	Modifying user name:	WinNT
#	Modification time:	15. 06. 2019 21:07

#	Program:	/corina/corina34_cracker 3.40 0067  02.08.2006

@<TRIPOS>MOLECULE
ASD06610056
 409  410    0    0    0
SMALL
NO_CHARGES


@<TRIPOS>ATOM
   1 C1            -4.7665     1.7912     5.8236 C.2     
   2 O2            -5.3305     0.7760     6.1732 O.2     
   3 N3            -2.7973     0.9350     6.9614 N.3     
   4 C4            -3.4198     2.1423     6.4019 C.3     
   5 C5            -3.5958     3.1847     7.5078 C.3     
   6 C6            -2.2423     3.6264     8.0018 C.2     
   7 O7            -1.2398     3.1558     7.5187 O.2     
   8 O8            -2.1504     4.5428     8.9783 O.3     
   9 C9            -6.5553     0.9290     3.6429 C.2     
  10 O10           -5.6512     0.1647     3.9065 O.2     
  11 N11           -5.3415     2.6025     4.9139 N.am    
  12 C12           -6.6478     2.2581     4.3473 C.3     
  13 C13           -7.6833     2.1692     5.4701 C.3     
  14 C14           -7.8681     3.5495     6.1038 C.3     
  15 C15           -8.9036     3.4606     7.2266 C.3     
  16 N16           -9.0806     4.7823     7.8334 N.pl3   
  17 C17           -9.9675     4.9493     8.8706 C.2     
  18 N18          -10.6509     3.9318     9.3140 N.2     
  19 N19          -10.1336     6.1896     9.4400 N.pl3   
  20 C20           -8.0820    -0.6132     0.7012 C.2     
  21 O21           -8.6012     0.4272     0.3562 O.2     
  22 N22           -7.4772     0.5897     2.7202 N.am    
  23 C23           -7.3872    -0.7023     2.0355 C.3     
  24 C24           -8.0589    -1.7798     2.8892 C.3     
  25 C25           -7.2900    -1.9548     4.1735 C.ar    
  26 C26           -7.6182    -1.1978     5.2830 C.ar    
  27 C27           -6.9146    -1.3560     6.4613 C.ar    
  28 C28           -5.8783    -2.2757     6.5308 C.ar    
  29 O29           -5.1849    -2.4335     7.6890 O.3     
  30 C30           -5.5512    -3.0344     5.4163 C.ar    
  31 C31           -6.2613    -2.8761     4.2419 C.ar    
  32 C32           -8.2248    -2.6328    -2.3425 C.2     
  33 O33           -7.3368    -3.3669    -1.9638 O.2     
  34 N34           -8.1265    -1.6895    -0.1087 N.am    
  35 C35           -8.8019    -1.6029    -1.4058 C.3     
  36 C36          -10.2980    -1.8637    -1.2202 C.3     
  37 C37          -10.9088    -0.7476    -0.3704 C.3     
  38 C38          -10.8201     0.5779    -1.1295 C.3     
  39 C39          -12.3755    -1.0720    -0.0802 C.3     
  40 C40           -8.3374    -3.2922    -5.9363 C.2     
  41 O41           -8.8957    -2.2408    -6.1683 O.2     
  42 N42           -8.6955    -2.7380    -3.6009 N.am    
  43 C43           -8.1345    -3.7392    -4.5115 C.3     
  44 C44           -8.8391    -5.0796    -4.2923 C.3     
  45 C45           -8.2574    -4.9201    -9.1936 C.2     
  46 O46           -7.8166    -5.9701    -8.7764 O.2     
  47 N47           -7.8985    -4.0607    -6.9527 N.am    
  48 C48           -8.1919    -3.6819    -8.3371 C.3     
  49 C49           -7.0883    -2.7591    -8.8582 C.3     
  50 C50           -7.4628    -2.2530   -10.2527 C.3     
  51 C51           -8.6871    -1.3409   -10.1524 C.3     
  52 C52           -5.7702    -3.5323    -8.9333 C.3     
  53 C53           -9.9873    -5.9393   -12.2481 C.2     
  54 O54          -10.6870    -4.9487   -12.2487 O.2     
  55 N55           -8.8058    -4.8607   -10.4233 N.am    
  56 C56           -8.8533    -6.0602   -11.2630 C.3     
  57 C57           -7.5323    -6.2045   -12.0213 C.3     
  58 C58           -7.2275    -4.9037   -12.7669 C.3     
  59 C59           -6.4049    -6.5004   -11.0301 C.3     
  60 C60          -11.7762    -8.1903   -14.5055 C.2     
  61 O61          -10.9990    -9.1205   -14.4666 O.2     
  62 N62          -10.2240    -6.9320   -13.1284 N.am    
  63 C63          -11.3264    -6.8145   -14.0860 C.3     
  64 C64          -10.8535    -6.0357   -15.3151 C.3     
  65 C65          -10.5628    -4.5865   -14.9198 C.3     
  66 C66          -10.0899    -3.8077   -16.1490 C.3     
  67 N67           -9.8115    -2.4201   -15.7705 N.pl3   
  68 C68           -9.3706    -1.5252   -16.7159 C.2     
  69 N69           -9.2309    -1.9023   -17.9540 N.2     
  70 N70           -9.0758    -0.2253   -16.3522 N.am    
  71 C71          -12.8660   -10.3275   -16.3878 C.2     
  72 O72          -11.9055    -9.7602   -16.8636 O.2     
  73 N73          -13.0422    -8.3870   -14.9239 N.am    
  74 C74          -13.6399    -9.6862   -15.2649 C.3     
  75 C75          -15.0919    -9.4189   -15.7140 C.3     
  76 C76          -15.0546    -7.9277   -16.1412 C.3     
  77 C77          -14.0589    -7.3356   -15.1095 C.3     
  78 C78          -12.6693   -13.6500   -17.8995 C.2     
  79 O79          -13.4831   -14.1350   -17.1422 O.2     
  80 N80          -13.2413   -11.5315   -16.8632 N.am    
  81 C81          -12.4889   -12.1549   -17.9548 C.3     
  82 C82          -13.0047   -11.6283   -19.2955 C.3     
  83 C83          -14.5036   -11.9119   -19.4123 C.3     
  84 C84          -12.7632   -10.1197   -19.3779 C.3     
  85 C85          -10.7451   -16.5377   -19.0491 C.2     
  86 O86           -9.8436   -15.8416   -19.4656 O.2     
  87 N87          -11.9263   -14.4483   -18.6915 N.am    
  88 C88          -12.0222   -15.9042   -18.5605 C.3     
  89 C89          -13.1973   -16.4152   -19.3966 C.3     
  90 C90           -8.3338   -18.5888   -18.5471 C.2     
  91 O91           -8.5442   -18.1725   -17.4276 O.2     
  92 N92          -10.6048   -17.8779   -19.0231 N.am    
  93 C93           -9.4100   -18.5006   -19.5984 C.3     
  94 C94           -9.7557   -19.9064   -20.0935 C.3     
  95 C95          -10.7674   -19.8123   -21.2064 C.2     
  96 O96          -11.2363   -18.7359   -21.5103 O.2     
  97 N97          -11.1513   -20.9245   -21.8639 N.am    
  98 C98           -4.7405   -19.2583   -18.4955 C.2     
  99 O99           -4.6595   -19.2206   -19.7050 O.2     
 100 N100          -7.1376   -19.1302   -18.8511 N.am    
 101 C101          -6.0914   -19.2159   -17.8291 C.3     
 102 C102          -6.2912   -20.4863   -17.0001 C.3     
 103 C103          -1.2624   -18.8610   -17.4427 C.2     
 104 O104          -1.5822   -18.4935   -16.3320 O.2     
 105 N105          -3.6222   -19.3380   -17.7474 N.am    
 106 C106          -2.3089   -19.3792   -18.3952 C.3     
 107 C107          -1.9764   -20.8214   -18.7828 C.3     
 108 C108          -2.9665   -21.3056   -19.8440 C.3     
 109 C109          -2.6340   -22.7478   -20.2316 C.3     
 110 N110          -3.5821   -23.2114   -21.2477 N.pl3   
 111 C111          -3.4800   -24.4862   -21.7524 C.2     
 112 N112          -4.3236   -24.8986   -22.6565 N.2     
 113 N113          -2.4883   -25.3259   -21.3036 N.pl3   
 114 C114           2.3887   -18.8809   -17.2645 C.2     
 115 O115           2.4862   -19.6394   -18.2058 O.2     
 116 N116           0.0288   -18.8060   -17.8250 N.am    
 117 C117           1.0461   -18.3022   -16.8990 C.3     
 118 C118           1.1069   -16.7761   -16.9891 C.3     
 119 C119          -0.2157   -16.1832   -16.4990 C.3     
 120 C120          -0.3938   -16.4941   -15.0116 C.3     
 121 C121          -0.2025   -14.6672   -16.7052 C.3     
 122 C122           5.6752   -19.1324   -15.6837 C.2     
 123 O123           5.2594   -18.7140   -14.6240 O.2     
 124 N124           3.4811   -18.5555   -16.5453 N.am    
 125 C125           4.7863   -19.1180   -16.9006 C.3     
 126 C126           5.4305   -18.2617   -17.9926 C.3     
 127 C127           4.5917   -18.3476   -19.2693 C.3     
 128 C128           5.2359   -17.4913   -20.3614 C.3     
 129 N129           4.4327   -17.5735   -21.5838 N.pl3   
 130 C130           4.8183   -16.8817   -22.7075 C.2     
 131 N131           4.1037   -16.9548   -23.7951 N.2     
 132 N132           5.9577   -16.1127   -22.6841 N.pl3   
 133 C133           8.8517   -20.7369   -14.8057 C.2     
 134 O134           8.9431   -21.2908   -15.8808 O.2     
 135 N135           6.9323   -19.6103   -15.7730 N.am    
 136 C136           7.7591   -19.7262   -14.5692 C.3     
 137 C137           8.3828   -18.3670   -14.2460 C.3     
 138 C138           9.0953   -17.8249   -15.4867 C.3     
 139 C139           9.5710   -16.3958   -15.2180 C.3     
 140 C140          10.2998   -18.7108   -15.8111 C.3     
 141 C141          11.9431   -21.7266   -13.1245 C.2     
 142 O142          11.8839   -20.7971   -12.3476 O.2     
 143 N143           9.7273   -21.0251   -13.8225 N.am    
 144 C144          10.7895   -22.0076   -14.0524 C.3     
 145 C145          10.2501   -23.4140   -13.7841 C.3     
 146 C146           9.1624   -23.7469   -14.8074 C.3     
 147 C147           8.6230   -25.1533   -14.5391 C.3     
 148 N148           7.5816   -25.4720   -15.5189 N.pl3   
 149 C149           6.9469   -26.6909   -15.4756 C.2     
 150 N150           6.0203   -26.9744   -16.3474 N.2     
 151 N151           7.2897   -27.6106   -14.5129 N.pl3   
 152 C152          14.9441   -23.5028   -12.0281 C.2     
 153 O153          14.6215   -24.5245   -12.5964 O.2     
 154 N154          13.0407   -22.5081   -13.1579 N.am    
 155 C155          14.1622   -22.2348   -12.2558 C.3     
 156 C156          15.0747   -21.1785   -12.8820 C.3     
 157 C157          15.5410   -21.6583   -14.2580 C.3     
 158 C158          14.3051   -19.8649   -13.0338 C.3     
 159 C159          18.2116   -24.3129   -10.6033 C.2     
 160 O160          18.4811   -23.1455   -10.4148 O.2     
 161 N161          16.0019   -23.5015   -11.1929 N.am    
 162 C162          16.8280   -24.7034   -11.0552 C.3     
 163 C163          16.1988   -25.6391   -10.0210 C.3     
 164 O164          16.2234   -25.0142    -8.7360 O.3     
 165 C165          21.3445   -26.1178    -9.8277 C.2     
 166 O166          20.8731   -27.2086   -10.0698 O.2     
 167 N167          19.1496   -25.2610   -10.4086 N.am    
 168 C168          20.4946   -24.8813    -9.9693 C.3     
 169 C169          24.9073   -26.8452    -9.4530 C.2     
 170 O170          25.2204   -25.6967    -9.6600 O.2     
 171 N171          22.6284   -26.0113    -9.4319 N.am    
 172 C172          23.4546   -27.2132    -9.2942 C.3     
 173 C173          23.2327   -27.8289    -7.9112 C.3     
 174 O174          25.8534   -27.7932    -9.3646 O.3     
 175 C175          -9.3386     0.2004   -15.1007 C.2     
 176 O176          -9.9127    -0.5287   -14.3203 O.2     
 177 C177          -8.8383    13.0157    -1.4366 C.3     
 178 C178          -9.2644    11.6124    -1.8726 C.3     
 179 C179          -8.8498    11.3824    -3.3273 C.3     
 180 C180          -9.2760     9.9791    -3.7633 C.3     
 181 C181          -8.8613     9.7491    -5.2180 C.3     
 182 C182          -9.2875     8.3458    -5.6540 C.3     
 183 C183          -8.8728     8.1158    -7.1086 C.3     
 184 C184          -9.2990     6.7125    -7.5446 C.3     
 185 C185          -8.8843     6.4825    -8.9993 C.3     
 186 C186          -9.3105     5.0792    -9.4353 C.3     
 187 C187          -8.8958     4.8492   -10.8899 C.3     
 188 C188          -9.3220     3.4459   -11.3259 C.3     
 189 C189          -8.9073     3.2159   -12.7806 C.3     
 190 C190          -9.3335     1.8126   -13.2166 C.3     
 191 C191          -8.9188     1.5826   -14.6713 C.3     
 192 H192          -3.3696     0.5385     7.6917 H       
 193 H193          -2.6115     0.2559     6.2387 H       
 194 H194          -2.7823     2.5493     5.6170 H       
 195 H195          -4.1371     4.0448     7.1137 H       
 196 H196          -4.1587     2.7479     8.3327 H       
 197 H197          -1.2608     4.7945     9.2619 H       
 198 H198          -4.8903     3.4144     4.6343 H       
 199 H199          -6.9490     3.0264     3.6352 H       
 200 H200          -8.6340     1.8268     5.0613 H       
 201 H201          -7.3387     1.4650     6.2273 H       
 202 H202          -6.9175     3.8919     6.5126 H       
 203 H203          -8.2128     4.2537     5.3466 H       
 204 H204          -9.8543     3.1183     6.8179 H       
 205 H205          -8.5590     2.7564     7.9838 H       
 206 H206          -8.5720     5.5395     7.5034 H       
 207 H207         -11.2766     4.0497    10.0457 H       
 208 H208          -9.6250     6.9468     9.1100 H       
 209 H209         -10.7593     6.3075    10.1717 H       
 210 H210          -8.2002     1.2010     2.5094 H       
 211 H211          -6.3393    -0.9605     1.8829 H       
 212 H212          -9.0815    -1.4784     3.1162 H       
 213 H213          -8.0708    -2.7222     2.3416 H       
 214 H214          -8.4250    -0.4819     5.2283 H       
 215 H215          -7.1708    -0.7639     7.3274 H       
 216 H216          -5.5549    -3.1027     8.2808 H       
 217 H217          -4.7447    -3.7507     5.4679 H       
 218 H218          -6.0100    -3.4696     3.3753 H       
 219 H219          -7.7112    -2.5216     0.1673 H       
 220 H220          -8.6560    -0.6076    -1.8257 H       
 221 H221         -10.7863    -1.8873    -2.1944 H       
 222 H222         -10.4404    -2.8212    -0.7191 H       
 223 H223         -10.3620    -0.6656     0.5690 H       
 224 H224         -11.2552     1.3731    -0.5241 H       
 225 H225          -9.7752     0.8090    -1.3362 H       
 226 H226         -11.3668     0.4959    -2.0689 H       
 227 H227         -12.4387    -2.0163     0.4605 H       
 228 H228         -12.8106    -0.2769     0.5251 H       
 229 H229         -12.9222    -1.1540    -1.0197 H       
 230 H230          -9.4058    -2.1509    -3.9038 H       
 231 H231          -7.0685    -3.8526    -4.3146 H       
 232 H232          -9.9051    -4.9662    -4.4892 H       
 233 H233          -8.4216    -5.8245    -4.9698 H       
 234 H234          -8.6923    -5.4030    -3.2618 H       
 235 H235          -7.3884    -4.8647    -6.7676 H       
 236 H236          -9.1490    -3.1619    -8.3765 H       
 237 H237          -6.9744    -1.9115    -8.1825 H       
 238 H238          -6.6268    -1.6941   -10.6730 H       
 239 H239          -7.6935    -3.1013   -10.8972 H       
 240 H240          -9.5024    -1.8790    -9.6688 H       
 241 H241          -8.4354    -0.4581    -9.5647 H       
 242 H242          -8.9958    -1.0359   -11.1523 H       
 243 H243          -5.8340    -4.2836    -9.7204 H       
 244 H244          -4.9562    -2.8421    -9.1549 H       
 245 H245          -5.5813    -4.0220    -7.9780 H       
 246 H246          -9.1691    -4.0236   -10.7524 H       
 247 H247          -9.0094    -6.9373   -10.6350 H       
 248 H248          -7.6114    -7.0232   -12.7365 H       
 249 H249          -7.1483    -4.0850   -12.0517 H       
 250 H250          -6.2864    -5.0065   -13.3071 H       
 251 H251          -8.0306    -4.6929   -13.4730 H       
 252 H252          -6.2951    -5.6609   -10.3436 H       
 253 H253          -6.6443    -7.4020   -10.4662 H       
 254 H254          -5.4723    -6.6492   -11.5744 H       
 255 H255          -9.6644    -7.7243   -13.1279 H       
 256 H256         -12.1583    -6.2868   -13.6194 H       
 257 H257          -9.9462    -6.4940   -15.7087 H       
 258 H258         -11.6310    -6.0550   -16.0788 H       
 259 H259         -11.4701    -4.1283   -14.5263 H       
 260 H260          -9.7853    -4.5672   -14.1562 H       
 261 H261          -9.1825    -4.2660   -16.5425 H       
 262 H262         -10.8674    -3.8270   -16.9126 H       
 263 H263          -9.9383    -2.1329   -14.8527 H       
 264 H264          -8.8514    -1.2932   -18.6067 H       
 265 H265          -8.6797     0.3809   -16.9975 H       
 266 H266         -13.6337   -10.3379   -14.3912 H       
 267 H267         -15.3580   -10.0553   -16.5580 H       
 268 H268         -15.7850    -9.5654   -14.8856 H       
 269 H269         -14.6773    -7.8221   -17.1584 H       
 270 H270         -16.0378    -7.4679   -16.0411 H       
 271 H271         -14.5651    -7.1269   -14.1669 H       
 272 H272         -13.5996    -6.4290   -15.5033 H       
 273 H273         -14.0095   -11.9852   -16.4827 H       
 274 H274         -11.4312   -11.9125   -17.8519 H       
 275 H275         -12.4763   -12.1257   -20.1088 H       
 276 H276         -15.0320   -11.4145   -18.5990 H       
 277 H277         -14.8711   -11.5368   -20.3675 H       
 278 H278         -14.6757   -12.9867   -19.3537 H       
 279 H279         -11.6931    -9.9196   -19.3240 H       
 280 H280         -13.1569    -9.7396   -20.3206 H       
 281 H281         -13.2676    -9.6252   -18.5477 H       
 282 H282         -11.3281   -14.0587   -19.3482 H       
 283 H283         -12.1802   -16.1653   -17.5141 H       
 284 H284         -13.0394   -16.1541   -20.4430 H       
 285 H285         -13.2687   -17.4985   -19.2992 H       
 286 H286         -14.1210   -15.9570   -19.0432 H       
 287 H287         -11.2949   -18.4302   -18.6235 H       
 288 H288          -9.0531   -17.8986   -20.4341 H       
 289 H289          -8.8533   -20.3936   -20.4630 H       
 290 H290         -10.1724   -20.4887   -19.2718 H       
 291 H291         -10.7764   -21.7854   -21.6207 H       
 292 H292         -11.8026   -20.8639   -22.5802 H       
 293 H293          -6.9694   -19.4632   -19.7464 H       
 294 H294          -6.1479   -18.3441   -17.1773 H       
 295 H295          -6.2347   -21.3581   -17.6518 H       
 296 H296          -5.5128   -20.5500   -16.2397 H       
 297 H297          -7.2683   -20.4556   -16.5180 H       
 298 H298          -3.6870   -19.3682   -16.7800 H       
 299 H299          -2.3255   -18.7571   -19.2901 H       
 300 H300          -0.9637   -20.8657   -19.1837 H       
 301 H301          -2.0467   -21.4598   -17.9021 H       
 302 H302          -3.9792   -21.2613   -19.4432 H       
 303 H303          -2.8961   -20.6673   -20.7247 H       
 304 H304          -1.6213   -22.7921   -20.6324 H       
 305 H305          -2.7044   -23.3862   -19.3509 H       
 306 H306          -4.2818   -22.6190   -21.5644 H       
 307 H307          -4.2516   -25.7980   -23.0126 H       
 308 H308          -1.8606   -25.0189   -20.6308 H       
 309 H309          -2.4163   -26.2253   -21.6597 H       
 310 H310           0.2845   -19.0999   -18.7133 H       
 311 H311           0.7886   -18.5961   -15.8814 H       
 312 H312           1.9228   -16.4076   -16.3673 H       
 313 H313           1.2765   -16.4797   -18.0242 H       
 314 H314          -1.0404   -16.6194   -17.0627 H       
 315 H315          -1.3361   -16.0717   -14.6624 H       
 316 H316          -0.4033   -17.5741   -14.8647 H       
 317 H317           0.4309   -16.0579   -14.4479 H       
 318 H318          -0.0755   -14.4457   -17.7649 H       
 319 H319          -1.1447   -14.2448   -16.3560 H       
 320 H320           0.6223   -14.2310   -16.1415 H       
 321 H321           3.4032   -17.9489   -15.7924 H       
 322 H322           4.6556   -20.1362   -17.2670 H       
 323 H323           5.4802   -17.2251   -17.6595 H       
 324 H324           6.4375   -18.6272   -18.1942 H       
 325 H325           4.5421   -19.3843   -19.6024 H       
 326 H326           3.5848   -17.9821   -19.0677 H       
 327 H327           5.2855   -16.4546   -20.0283 H       
 328 H328           6.2428   -17.8568   -20.5630 H       
 329 H329           3.6288   -18.1161   -21.6003 H       
 330 H330           4.3758   -16.4667   -24.5880 H       
 331 H331           6.4896   -16.0583   -21.8747 H       
 332 H332           6.2298   -15.6246   -23.4770 H       
 333 H333           7.2895   -19.8774   -16.6344 H       
 334 H334           7.1396   -20.0499   -13.7328 H       
 335 H335           7.6005   -17.6711   -13.9431 H       
 336 H336           9.1019   -18.4809   -13.4348 H       
 337 H337           8.4059   -17.8256   -16.3310 H       
 338 H338          10.2604   -16.3950   -14.3737 H       
 339 H339          10.0785   -16.0095   -16.1019 H       
 340 H340           8.7129   -15.7646   -14.9869 H       
 341 H341          10.8726   -18.8924   -14.9017 H       
 342 H342           9.9531   -19.6607   -16.2179 H       
 343 H343          10.9318   -18.2104   -16.5447 H       
 344 H344           9.6542   -20.5821   -12.9627 H       
 345 H345          11.1295   -21.9399   -15.0858 H       
 346 H346          11.0617   -24.1366   -13.8685 H       
 347 H347           9.8290   -23.4562   -12.7796 H       
 348 H348           8.3508   -23.0242   -14.7230 H       
 349 H349           9.5834   -23.7047   -15.8119 H       
 350 H350           9.4347   -25.8759   -14.6235 H       
 351 H351           8.2020   -25.1955   -13.5346 H       
 352 H352           7.3398   -24.8232   -16.1981 H       
 353 H353           5.5726   -27.8344   -16.3169 H       
 354 H354           7.9792   -27.3995   -13.8642 H       
 355 H355           6.8419   -28.4705   -14.4824 H       
 356 H356          13.0880   -23.2514   -13.7792 H       
 357 H357          13.7809   -21.8670   -11.3032 H       
 358 H358          15.9410   -21.0199   -12.2398 H       
 359 H359          14.6747   -21.8169   -14.9003 H       
 360 H360          16.1911   -20.9057   -14.7042 H       
 361 H361          16.0893   -22.5941   -14.1499 H       
 362 H362          13.8797   -19.5797   -12.0716 H       
 363 H363          14.9835   -19.0838   -13.3770 H       
 364 H364          13.5036   -19.9953   -13.7610 H       
 365 H365          16.2161   -22.7046   -10.6829 H       
 366 H366          16.8902   -25.2136   -12.0164 H       
 367 H367          15.1672   -25.8506   -10.3024 H       
 368 H368          16.7634   -26.5707    -9.9828 H       
 369 H369          15.8395   -25.5518    -8.0299 H       
 370 H370          18.9341   -26.1946   -10.5594 H       
 371 H371          20.4324   -24.3711    -9.0081 H       
 372 H372          20.9429   -24.2148   -10.7061 H       
 373 H373          23.0054   -25.1388    -9.2382 H       
 374 H374          23.1766   -27.9351   -10.0621 H       
 375 H375          22.1820   -28.0951    -7.7963 H       
 376 H376          23.8474   -28.7232    -7.8088 H       
 377 H377          23.5107   -27.1070    -7.1433 H       
 378 H378          26.7712   -27.5090    -9.4733 H       
 379 H379          -7.7560    13.1107    -1.5253 H       
 380 H380          -9.3214    13.7565    -2.0737 H       
 381 H381          -9.1337    13.1796    -0.4003 H       
 382 H382          -8.7813    10.8716    -1.2356 H       
 383 H383         -10.3467    11.5174    -1.7840 H       
 384 H384          -9.3329    12.1232    -3.9643 H       
 385 H385          -7.7675    11.4774    -3.4160 H       
 386 H386          -8.7928     9.2383    -3.1263 H       
 387 H387         -10.3582     9.8841    -3.6746 H       
 388 H388          -9.3444    10.4899    -5.8550 H       
 389 H389          -7.7790     9.8441    -5.3066 H       
 390 H390          -8.8043     7.6050    -5.0169 H       
 391 H391         -10.3697     8.2508    -5.5653 H       
 392 H392          -9.3559     8.8566    -7.7457 H       
 393 H393          -7.7905     8.2108    -7.1973 H       
 394 H394          -8.8158     5.9717    -6.9076 H       
 395 H395         -10.3812     6.6175    -7.4560 H       
 396 H396          -9.3674     7.2233    -9.6363 H       
 397 H397          -7.8021     6.5775    -9.0879 H       
 398 H398          -8.8273     4.3384    -8.7982 H       
 399 H399         -10.3927     4.9842    -9.3466 H       
 400 H400          -9.3790     5.5900   -11.5270 H       
 401 H401          -7.8136     4.9442   -10.9786 H       
 402 H402          -8.8388     2.7051   -10.6889 H       
 403 H403         -10.4042     3.3509   -11.2373 H       
 404 H404          -9.3905     3.9567   -13.4176 H       
 405 H405          -7.8251     3.3109   -12.8693 H       
 406 H406          -8.8503     1.0718   -12.5796 H       
 407 H407         -10.4157     1.7176   -13.1279 H       
 408 H408          -7.8366     1.6776   -14.7599 H       
 409 H409          -9.4020     2.3234   -15.3083 H       
@<TRIPOS>BOND
   1    1    2 2
   2    1    4 1
   3    1   11 am
   4    3    4 1
   5    3  192 1
   6    3  193 1
   7    4    5 1
   8    4  194 1
   9    5    6 1
  10    5  195 1
  11    5  196 1
  12    6    7 2
  13    6    8 1
  14    8  197 1
  15    9   10 2
  16    9   12 1
  17    9   22 am
  18   11   12 1
  19   11  198 1
  20   12   13 1
  21   12  199 1
  22   13   14 1
  23   13  200 1
  24   13  201 1
  25   14   15 1
  26   14  202 1
  27   14  203 1
  28   15   16 1
  29   15  204 1
  30   15  205 1
  31   16   17 1
  32   16  206 1
  33   17   18 2
  34   17   19 1
  35   18  207 1
  36   19  208 1
  37   19  209 1
  38   20   21 2
  39   20   23 1
  40   20   34 am
  41   22   23 1
  42   22  210 1
  43   23   24 1
  44   23  211 1
  45   24   25 1
  46   24  212 1
  47   24  213 1
  48   25   26 ar
  49   25   31 ar
  50   26   27 ar
  51   26  214 1
  52   27   28 ar
  53   27  215 1
  54   28   29 1
  55   28   30 ar
  56   29  216 1
  57   30   31 ar
  58   30  217 1
  59   31  218 1
  60   32   33 2
  61   32   35 1
  62   32   42 am
  63   34   35 1
  64   34  219 1
  65   35   36 1
  66   35  220 1
  67   36   37 1
  68   36  221 1
  69   36  222 1
  70   37   38 1
  71   37   39 1
  72   37  223 1
  73   38  224 1
  74   38  225 1
  75   38  226 1
  76   39  227 1
  77   39  228 1
  78   39  229 1
  79   40   41 2
  80   40   43 1
  81   40   47 am
  82   42   43 1
  83   42  230 1
  84   43   44 1
  85   43  231 1
  86   44  232 1
  87   44  233 1
  88   44  234 1
  89   45   46 2
  90   45   48 1
  91   45   55 am
  92   47   48 1
  93   47  235 1
  94   48   49 1
  95   48  236 1
  96   49   50 1
  97   49   52 1
  98   49  237 1
  99   50   51 1
 100   50  238 1
 101   50  239 1
 102   51  240 1
 103   51  241 1
 104   51  242 1
 105   52  243 1
 106   52  244 1
 107   52  245 1
 108   53   54 2
 109   53   56 1
 110   53   62 am
 111   55   56 1
 112   55  246 1
 113   56   57 1
 114   56  247 1
 115   57   58 1
 116   57   59 1
 117   57  248 1
 118   58  249 1
 119   58  250 1
 120   58  251 1
 121   59  252 1
 122   59  253 1
 123   59  254 1
 124   60   61 2
 125   60   63 1
 126   60   73 am
 127   62   63 1
 128   62  255 1
 129   63   64 1
 130   63  256 1
 131   64   65 1
 132   64  257 1
 133   64  258 1
 134   65   66 1
 135   65  259 1
 136   65  260 1
 137   66   67 1
 138   66  261 1
 139   66  262 1
 140   67   68 1
 141   67  263 1
 142   68   69 2
 143   68   70 1
 144   69  264 1
 145   70  175 am
 146   70  265 1
 147   71   72 2
 148   71   80 am
 149   71   74 1
 150   73   74 1
 151   73   77 1
 152   74   75 1
 153   74  266 1
 154   75   76 1
 155   75  267 1
 156   75  268 1
 157   76   77 1
 158   76  269 1
 159   76  270 1
 160   77  271 1
 161   77  272 1
 162   78   79 2
 163   78   81 1
 164   78   87 am
 165   80   81 1
 166   80  273 1
 167   81   82 1
 168   81  274 1
 169   82   83 1
 170   82   84 1
 171   82  275 1
 172   83  276 1
 173   83  277 1
 174   83  278 1
 175   84  279 1
 176   84  280 1
 177   84  281 1
 178   85   86 2
 179   85   88 1
 180   85   92 am
 181   87   88 1
 182   87  282 1
 183   88   89 1
 184   88  283 1
 185   89  284 1
 186   89  285 1
 187   89  286 1
 188   90   91 2
 189   90   93 1
 190   90  100 am
 191   92   93 1
 192   92  287 1
 193   93   94 1
 194   93  288 1
 195   94   95 1
 196   94  289 1
 197   94  290 1
 198   95   96 2
 199   95   97 am
 200   97  291 1
 201   97  292 1
 202   98   99 2
 203   98  101 1
 204   98  105 am
 205  100  101 1
 206  100  293 1
 207  101  102 1
 208  101  294 1
 209  102  295 1
 210  102  296 1
 211  102  297 1
 212  103  104 2
 213  103  106 1
 214  103  116 am
 215  105  106 1
 216  105  298 1
 217  106  107 1
 218  106  299 1
 219  107  108 1
 220  107  300 1
 221  107  301 1
 222  108  109 1
 223  108  302 1
 224  108  303 1
 225  109  110 1
 226  109  304 1
 227  109  305 1
 228  110  111 1
 229  110  306 1
 230  111  112 2
 231  111  113 1
 232  112  307 1
 233  113  308 1
 234  113  309 1
 235  114  115 2
 236  114  117 1
 237  114  124 am
 238  116  117 1
 239  116  310 1
 240  117  118 1
 241  117  311 1
 242  118  119 1
 243  118  312 1
 244  118  313 1
 245  119  120 1
 246  119  121 1
 247  119  314 1
 248  120  315 1
 249  120  316 1
 250  120  317 1
 251  121  318 1
 252  121  319 1
 253  121  320 1
 254  122  123 2
 255  122  125 1
 256  122  135 am
 257  124  125 1
 258  124  321 1
 259  125  126 1
 260  125  322 1
 261  126  127 1
 262  126  323 1
 263  126  324 1
 264  127  128 1
 265  127  325 1
 266  127  326 1
 267  128  129 1
 268  128  327 1
 269  128  328 1
 270  129  130 1
 271  129  329 1
 272  130  131 2
 273  130  132 1
 274  131  330 1
 275  132  331 1
 276  132  332 1
 277  133  134 2
 278  133  136 1
 279  133  143 am
 280  135  136 1
 281  135  333 1
 282  136  137 1
 283  136  334 1
 284  137  138 1
 285  137  335 1
 286  137  336 1
 287  138  139 1
 288  138  140 1
 289  138  337 1
 290  139  338 1
 291  139  339 1
 292  139  340 1
 293  140  341 1
 294  140  342 1
 295  140  343 1
 296  141  142 2
 297  141  144 1
 298  141  154 am
 299  143  144 1
 300  143  344 1
 301  144  145 1
 302  144  345 1
 303  145  146 1
 304  145  346 1
 305  145  347 1
 306  146  147 1
 307  146  348 1
 308  146  349 1
 309  147  148 1
 310  147  350 1
 311  147  351 1
 312  148  149 1
 313  148  352 1
 314  149  150 2
 315  149  151 1
 316  150  353 1
 317  151  354 1
 318  151  355 1
 319  152  153 2
 320  152  155 1
 321  152  161 am
 322  154  155 1
 323  154  356 1
 324  155  156 1
 325  155  357 1
 326  156  157 1
 327  156  158 1
 328  156  358 1
 329  157  359 1
 330  157  360 1
 331  157  361 1
 332  158  362 1
 333  158  363 1
 334  158  364 1
 335  159  160 2
 336  159  162 1
 337  159  167 am
 338  161  162 1
 339  161  365 1
 340  162  163 1
 341  162  366 1
 342  163  164 1
 343  163  367 1
 344  163  368 1
 345  164  369 1
 346  165  166 2
 347  165  168 1
 348  165  171 am
 349  167  168 1
 350  167  370 1
 351  168  371 1
 352  168  372 1
 353  169  170 2
 354  169  172 1
 355  169  174 1
 356  171  172 1
 357  171  373 1
 358  172  173 1
 359  172  374 1
 360  173  375 1
 361  173  376 1
 362  173  377 1
 363  174  378 1
 364  175  176 2
 365  175  191 1
 366  177  178 1
 367  177  379 1
 368  177  380 1
 369  177  381 1
 370  178  179 1
 371  178  382 1
 372  178  383 1
 373  179  180 1
 374  179  384 1
 375  179  385 1
 376  180  181 1
 377  180  386 1
 378  180  387 1
 379  181  182 1
 380  181  388 1
 381  181  389 1
 382  182  183 1
 383  182  390 1
 384  182  391 1
 385  183  184 1
 386  183  392 1
 387  183  393 1
 388  184  185 1
 389  184  394 1
 390  184  395 1
 391  185  186 1
 392  185  396 1
 393  185  397 1
 394  186  187 1
 395  186  398 1
 396  186  399 1
 397  187  188 1
 398  187  400 1
 399  187  401 1
 400  188  189 1
 401  188  402 1
 402  188  403 1
 403  189  190 1
 404  189  404 1
 405  189  405 1
 406  190  191 1
 407  190  406 1
 408  190  407 1
 409  191  408 1
 410  191  409 1

#	End of record

