#	Name: ASD01770005
#	Creating user name:	WinNT
#	Creation time:	15. 06. 2019 19:23

#	Modifying user name:	WinNT
#	Modification time:	15. 06. 2019 19:23

#	Program:	/corina/corina34_cracker 3.40 0067  02.08.2006

@<TRIPOS>MOLECULE
ASD01770005
  36   37    0    0    0
SMALL
NO_CHARGES


@<TRIPOS>ATOM
   1 O1            -0.0173     1.4248     0.0099 O.3     
   2 C2             0.0021    -0.0041     0.0020 C.3     
   3 C3             0.7175    -0.5102     1.2573 C.3     
   4 C4             2.1334     0.0727     1.2986 C.3     
   5 C5             2.0458     1.6014     1.2560 C.3     
   6 C6             1.2791     2.0260     0.0007 C.3     
   7 O7             0.7892    -1.9370     1.2235 O.3     
   8 O8             2.8761    -0.3952     0.1710 O.3     
   9 O9             1.3593     2.0730     2.4172 O.3     
  10 O10            1.9937     1.6000    -1.1611 O.3     
  11 C11            1.5619     2.0739    -2.3593 C.ar    
  12 C12            2.2096     1.7011    -3.5284 C.ar    
  13 C13            1.7685     2.1838    -4.7451 C.ar    
  14 C14            0.6826     3.0383    -4.7986 C.ar    
  15 C15            0.0356     3.4113    -3.6352 C.ar    
  16 C16            0.4694     2.9267    -2.4163 C.ar    
  17 N17            3.3725     0.7873    -3.4717 N.pl3   
  18 O18            3.9407     0.4603    -4.4983 O.2     
  19 O19            3.7613     0.3622    -2.3985 O.2     
  20 C20           -1.4332    -0.5337    -0.0158 C.3     
  21 O21           -2.0645    -0.1576    -1.2414 O.3     
  22 H22            0.5305    -0.3556    -0.8842 H       
  23 H23            0.1670    -0.1932     2.1431 H       
  24 H24            2.6292    -0.2386     2.2181 H       
  25 H25            3.0505     2.0232     1.2303 H       
  26 H26            1.1765     3.1110    -0.0129 H       
  27 H27            1.2313    -2.3269     1.9901 H       
  28 H28            3.7840    -0.0646     0.1334 H       
  29 H29            1.2673     3.0348     2.4562 H       
  30 H30            2.2723     1.8938    -5.6553 H       
  31 H31            0.3397     3.4152    -5.7508 H       
  32 H32           -0.8123     4.0788    -3.6797 H       
  33 H33           -0.0390     3.2151    -1.5081 H       
  34 H34           -1.4205    -1.6204     0.0677 H       
  35 H35           -1.9869    -0.1113     0.8227 H       
  36 H36           -2.9793    -0.4606    -1.3218 H       
@<TRIPOS>BOND
   1    1    2 1
   2    1    6 1
   3    2    3 1
   4    2   20 1
   5    2   22 1
   6    3    4 1
   7    3    7 1
   8    3   23 1
   9    4    5 1
  10    4    8 1
  11    4   24 1
  12    5    9 1
  13    5    6 1
  14    5   25 1
  15    6   10 1
  16    6   26 1
  17    7   27 1
  18    8   28 1
  19    9   29 1
  20   10   11 1
  21   11   12 ar
  22   11   16 ar
  23   12   13 ar
  24   12   17 1
  25   13   14 ar
  26   13   30 1
  27   14   15 ar
  28   14   31 1
  29   15   16 ar
  30   15   32 1
  31   16   33 1
  32   17   18 2
  33   17   19 2
  34   20   21 1
  35   20   34 1
  36   20   35 1
  37   21   36 1

#	End of record

