#	Name: ASD01410951
#	Creating user name:	WinNT
#	Creation time:	15. 06. 2019 19:19

#	Modifying user name:	WinNT
#	Modification time:	15. 06. 2019 19:19

#	Program:	/corina/corina34_cracker 3.40 0067  02.08.2006

@<TRIPOS>MOLECULE
ASD01410951
  67   70    0    0    0
SMALL
NO_CHARGES


@<TRIPOS>ATOM
   1 C1            -1.4912     3.0831     0.3938 C.ar    
   2 C2            -1.3420     0.7261    -0.0513 C.ar    
   3 C3            -2.7174     0.6677    -0.2297 C.ar    
   4 C4            -3.4891     1.8308    -0.0836 C.ar    
   5 C5            -2.8631     3.0411     0.2245 C.ar    
   6 O6            -0.8819     4.2596     0.6993 O.3     
   7 C7            -0.0884     4.8291    -0.2423 C.ar    
   8 N8            -3.3308    -0.5434    -0.5424 N.am    
   9 C9            -3.7278    -1.3721     0.4436 C.2     
  10 C10           -3.6672    -0.9275     1.8519 C.ar    
  11 O11           -4.1355    -2.4853     0.1747 O.2     
  12 C12           -4.2236    -1.7160     2.8606 C.ar    
  13 C13           -2.9949     0.6890     3.4962 C.ar    
  14 C14           -3.5529    -0.0948     4.4905 C.ar    
  15 C15           -4.1632    -1.2953     4.1730 C.ar    
  16 C16           -3.4904     0.3581     5.9265 C.3     
  17 N17           -0.0221     4.2976    -1.4520 N.ar    
  18 C18           -3.5445    -0.9162    -1.9429 C.3     
  19 C19           -4.2741     0.2172    -2.6668 C.3     
  20 C20            0.6422     5.9680     0.0713 C.ar    
  21 C21            1.4477     6.5396    -0.8985 C.ar    
  22 C22            1.4937     5.9486    -2.1534 C.ar    
  23 C23            0.7364     4.8197    -2.3968 C.ar    
  24 C24           -3.0483     0.2801     2.1798 C.ar    
  25 C25            2.3561     6.5360    -3.2407 C.3     
  26 C26           -2.1933    -1.1649    -2.6163 C.3     
  27 O27           -1.5663    -2.3023    -2.0203 O.3     
  28 C28           -0.2910    -2.6227    -2.5797 C.3     
  29 C29           -0.7338     1.9256     0.2585 C.ar    
  30 N30            3.6915     5.9364    -3.1823 N.pl3   
  31 N31            4.0435     4.8735    -3.8149 N.2     
  32 C32            5.3020     4.6162    -3.5394 C.2     
  33 C33            5.7165     5.6243    -2.6660 C.2     
  34 N34            4.6731     6.4044    -2.4957 N.2     
  35 C35            0.5588     6.5736     1.4487 C.3     
  36 F36            1.3806     7.7040     1.5118 F       
  37 F37           -0.7638     6.9431     1.7163 F       
  38 F38            0.9819     5.6359     2.3968 F       
  39 C39           -4.9501     1.7790    -0.2710 C.2     
  40 O40           -5.5118     0.7065    -0.3741 O.2     
  41 O41           -5.6630     2.9212    -0.3279 O.3     
  42 H42           -0.7457    -0.1674    -0.1627 H       
  43 H43           -3.4493     3.9419     0.3306 H       
  44 H44           -4.7005    -2.6531     2.6140 H       
  45 H45           -2.5203     1.6251     3.7508 H       
  46 H46           -4.5935    -1.9042     4.9543 H       
  47 H47           -4.3708     0.9580     6.1570 H       
  48 H48           -3.4626    -0.5129     6.5813 H       
  49 H49           -2.5925     0.9567     6.0799 H       
  50 H50           -4.1463    -1.8238    -1.9896 H       
  51 H51           -3.6882     1.1333    -2.5908 H       
  52 H52           -4.4028    -0.0457    -3.7168 H       
  53 H53           -5.2509     0.3716    -2.2085 H       
  54 H54            2.0269     7.4255    -0.6837 H       
  55 H55            0.7689     4.3557    -3.3715 H       
  56 H56           -2.6121     0.8926     1.4047 H       
  57 H57            1.9072     6.3291    -4.2122 H       
  58 H58            2.4353     7.6139    -3.0992 H       
  59 H59           -2.3458    -1.3497    -3.6796 H       
  60 H60           -1.5565    -0.2898    -2.4873 H       
  61 H61           -0.4040    -2.8378    -3.6423 H       
  62 H62            0.3853    -1.7778    -2.4500 H       
  63 H63            0.1185    -3.4969    -2.0737 H       
  64 H64            0.3366     1.9652     0.3962 H       
  65 H65            5.8946     3.7936    -3.9117 H       
  66 H66            6.6952     5.7412    -2.2247 H       
  67 H67           -6.6183     2.8367    -0.4519 H       
@<TRIPOS>BOND
   1    1   29 ar
   2    1    6 1
   3    1    5 ar
   4    2    3 ar
   5    2   29 ar
   6    2   42 1
   7    3    4 ar
   8    3    8 1
   9    4    5 ar
  10    4   39 1
  11    5   43 1
  12    6    7 1
  13    7   20 ar
  14    7   17 ar
  15    8    9 am
  16    8   18 1
  17    9   10 1
  18    9   11 2
  19   10   12 ar
  20   10   24 ar
  21   12   15 ar
  22   12   44 1
  23   13   14 ar
  24   13   24 ar
  25   13   45 1
  26   14   15 ar
  27   14   16 1
  28   15   46 1
  29   16   47 1
  30   16   48 1
  31   16   49 1
  32   17   23 ar
  33   18   19 1
  34   18   26 1
  35   18   50 1
  36   19   51 1
  37   19   52 1
  38   19   53 1
  39   20   21 ar
  40   20   35 1
  41   21   22 ar
  42   21   54 1
  43   22   23 ar
  44   22   25 1
  45   23   55 1
  46   24   56 1
  47   25   30 1
  48   25   57 1
  49   25   58 1
  50   26   27 1
  51   26   59 1
  52   26   60 1
  53   27   28 1
  54   28   61 1
  55   28   62 1
  56   28   63 1
  57   29   64 1
  58   30   31 1
  59   30   34 1
  60   31   32 2
  61   32   33 1
  62   32   65 1
  63   33   34 2
  64   33   66 1
  65   35   36 1
  66   35   37 1
  67   35   38 1
  68   39   40 2
  69   39   41 1
  70   41   67 1

#	End of record

