#	Name: ASD06710053
#	Creating user name:	WinNT
#	Creation time:	15. 06. 2019 21:08

#	Modifying user name:	WinNT
#	Modification time:	15. 06. 2019 21:08

#	Program:	/corina/corina34_cracker 3.40 0067  02.08.2006

@<TRIPOS>MOLECULE
ASD06710053
  33   36    0    0    0
SMALL
NO_CHARGES


@<TRIPOS>ATOM
   1 C1            -0.0171     1.4119     0.0098 C.ar    
   2 C2             0.0021    -0.0041     0.0020 C.ar    
   3 C3             1.2270    -0.6565    -0.0133 C.ar    
   4 C4             2.4094     0.0736    -0.0203 C.ar    
   5 C5             2.4088     1.4386    -0.0124 C.ar    
   6 C6             1.1910     2.1406     0.0022 C.ar    
   7 C7             1.1368     3.5453     0.0104 C.ar    
   8 C8            -0.0708     4.1790     0.0254 C.ar    
   9 C9            -1.2667     3.4648     0.0334 C.ar    
  10 C10           -1.2523     2.0879     0.0193 C.ar    
  11 N11           -2.4146     1.3251     0.0207 N.pl3   
  12 C12           -2.3252    -0.0468     0.0128 C.2     
  13 N13           -1.1766    -0.6786     0.0093 N.2     
  14 C14           -3.5709    -0.8392     0.0145 C.ar    
  15 C15           -3.5128    -2.2350     0.0066 C.ar    
  16 C16           -4.6816    -2.9720     0.0087 C.ar    
  17 C17           -5.9148    -2.3228     0.0185 C.ar    
  18 C18           -5.9724    -0.9361     0.0259 C.ar    
  19 C19           -4.8102    -0.1949     0.0297 C.ar    
  20 O20           -7.0630    -3.0489     0.0205 O.3     
  21 O21           -4.6286    -4.3310     0.0006 O.3     
  22 H22            1.2613    -1.7359    -0.0194 H       
  23 H23            3.3526    -0.4523    -0.0318 H       
  24 H24            3.3438     1.9792    -0.0178 H       
  25 H25            2.0501     4.1218     0.0051 H       
  26 H26           -0.1005     5.2586     0.0315 H       
  27 H27           -2.2087     3.9929     0.0459 H       
  28 H28           -3.2827     1.7579     0.0275 H       
  29 H29           -2.5565    -2.7368    -0.0013 H       
  30 H30           -6.9299    -0.4367     0.0331 H       
  31 H31           -4.8579     0.8840     0.0403 H       
  32 H32           -7.3909    -3.2639     0.9045 H       
  33 H33           -4.6086    -4.7290     0.8817 H       
@<TRIPOS>BOND
   1    1    2 ar
   2    1    6 ar
   3    1   10 ar
   4    2    3 ar
   5    2   13 1
   6    3    4 ar
   7    3   22 1
   8    4    5 ar
   9    4   23 1
  10    5    6 ar
  11    5   24 1
  12    6    7 ar
  13    7    8 ar
  14    7   25 1
  15    8    9 ar
  16    8   26 1
  17    9   10 ar
  18    9   27 1
  19   10   11 1
  20   11   12 1
  21   11   28 1
  22   12   13 2
  23   12   14 1
  24   14   15 ar
  25   14   19 ar
  26   15   16 ar
  27   15   29 1
  28   16   17 ar
  29   16   21 1
  30   17   18 ar
  31   17   20 1
  32   18   19 ar
  33   18   30 1
  34   19   31 1
  35   20   32 1
  36   21   33 1

#	End of record

