#	Name: ASD01910206
#	Creating user name:	WinNT
#	Creation time:	15. 06. 2019 19:55

#	Modifying user name:	WinNT
#	Modification time:	15. 06. 2019 19:55

#	Program:	/corina/corina34_cracker 3.40 0067  02.08.2006

@<TRIPOS>MOLECULE
ASD01910206
  40   43    0    0    0
SMALL
NO_CHARGES


@<TRIPOS>ATOM
   1 C1             2.2100    -2.4361    -1.1962 C.ar    
   2 C2             1.1025    -1.8880    -0.5806 C.ar    
   3 C3             1.1800    -0.6430     0.0224 C.ar    
   4 C4             2.3642     0.0613     0.0133 C.ar    
   5 C5             3.4929    -0.4815    -0.6061 C.ar    
   6 C6             3.4104    -1.7413    -1.2146 C.ar    
   7 O7             4.4996    -2.2788    -1.8188 O.3     
   8 C8             4.7637     0.2673    -0.6200 C.2     
   9 N9             4.8385     1.4787    -0.0341 N.am    
  10 C10            6.0683     2.1396     0.0512 C.ar    
  11 C11            7.2341     1.4131     0.2379 C.ar    
  12 C12            8.4577     2.0766     0.3218 C.ar    
  13 C13            8.5007     3.4675     0.2173 C.ar    
  14 C14            7.3345     4.1821     0.0315 C.ar    
  15 C15            6.1223     3.5244    -0.0569 C.ar    
  16 C16            9.7061     1.3086     0.5214 C.2     
  17 N17            9.7794     0.0050     0.6319 N.2     
  18 C18           11.0714    -0.3656     0.8043 C.ar    
  19 C19           11.8445     0.8091     0.7978 C.ar    
  20 N20           10.9589     1.8524     0.6124 N.pl3   
  21 C21           11.7025    -1.6028     0.9708 C.ar    
  22 C22           13.0584    -1.6599     1.1250 C.ar    
  23 C23           13.8213    -0.5005     1.1186 C.ar    
  24 C24           13.2213     0.7303     0.9567 C.ar    
  25 O25            5.7438    -0.2085    -1.1601 O.2     
  26 H26            2.1429    -3.4090    -1.6602 H       
  27 H27            0.1700    -2.4327    -0.5694 H       
  28 H28            0.3082    -0.2226     0.5015 H       
  29 H29            2.4198     1.0318     0.4840 H       
  30 H30            5.0486    -2.8176    -1.2328 H       
  31 H31            4.0395     1.8923     0.3285 H       
  32 H32            7.1948     0.3369     0.3184 H       
  33 H33            9.4465     3.9849     0.2822 H       
  34 H34            7.3698     5.2586    -0.0487 H       
  35 H35            5.2130     4.0887    -0.2023 H       
  36 H36           11.1823     2.7950     0.5619 H       
  37 H37           11.1186    -2.5113     0.9778 H       
  38 H38           13.5418    -2.6170     1.2537 H       
  39 H39           14.8924    -0.5628     1.2421 H       
  40 H40           13.8200     1.6291     0.9520 H       
@<TRIPOS>BOND
   1    1    2 ar
   2    1    6 ar
   3    1   26 1
   4    2    3 ar
   5    2   27 1
   6    3    4 ar
   7    3   28 1
   8    4    5 ar
   9    4   29 1
  10    5    6 ar
  11    5    8 1
  12    6    7 1
  13    7   30 1
  14    8    9 am
  15    8   25 2
  16    9   10 1
  17    9   31 1
  18   10   11 ar
  19   10   15 ar
  20   11   12 ar
  21   11   32 1
  22   12   13 ar
  23   12   16 1
  24   13   14 ar
  25   13   33 1
  26   14   15 ar
  27   14   34 1
  28   15   35 1
  29   16   17 2
  30   16   20 1
  31   17   18 1
  32   18   19 ar
  33   18   21 ar
  34   19   20 1
  35   19   24 ar
  36   20   36 1
  37   21   22 ar
  38   21   37 1
  39   22   23 ar
  40   22   38 1
  41   23   24 ar
  42   23   39 1
  43   24   40 1

#	End of record

