#	Name: ASD01410840
#	Creating user name:	WinNT
#	Creation time:	15. 06. 2019 19:18

#	Modifying user name:	WinNT
#	Modification time:	15. 06. 2019 19:18

#	Program:	/corina/corina34_cracker 3.40 0067  02.08.2006

@<TRIPOS>MOLECULE
ASD01410840
 123  129    0    0    0
SMALL
NO_CHARGES


@<TRIPOS>ATOM
   1 C1             0.0997     1.1250     2.8366 C.3     
   2 C2             0.1858    -0.3599     3.2597 C.3     
   3 N3             0.8645    -0.3308     4.5718 N.am    
   4 C4             0.5969     0.9666     5.2045 C.3     
   5 C5            -0.2109     1.8110     4.1949 C.3     
   6 O6             1.3452     1.5803     2.3043 O.3     
   7 C7            -0.2063     0.7666     6.4639 C.2     
   8 O8            -0.5283    -0.3513     6.8067 O.2     
   9 N9            -0.5668     1.8301     7.2092 N.am    
  10 C10            1.0910    -1.1232     2.2865 C.3     
  11 N11            1.3992    -2.4272     2.8875 N.am    
  12 C12            1.9957    -2.5126     4.2187 C.3     
  13 C13            1.6263    -1.3239     5.0607 C.2     
  14 O14            2.0238    -1.2596     6.2048 O.2     
  15 C15            1.5029    -3.7868     4.9075 C.3     
  16 C16            2.0107    -3.8155     6.3505 C.3     
  17 C17           -0.0270    -3.8091     4.9046 C.3     
  18 C18           -1.4459     1.6490     8.3670 C.3     
  19 C19           -2.8467     1.1899     8.0540 C.2     
  20 N20           -3.2564     1.1013     6.7730 N.am    
  21 O21           -3.6054     0.9001     8.9547 O.2     
  22 S22           -4.8301     0.7146     6.4319 S.o2    
  23 C23           -5.7900     2.1104     7.0806 C.3     
  24 C24           -0.8106     1.1449     9.6644 C.3     
  25 C25           -1.2627     2.6028     9.5492 C.3     
  26 C26           -7.3154     2.0051     7.0255 C.3     
  27 C27           -6.5880     1.8822     8.3659 C.3     
  28 O28           -4.8847     0.6889     5.0121 O.2     
  29 O29           -5.0764    -0.4580     7.1959 O.2     
  30 C30           -1.6464     0.2137    10.5449 C.3     
  31 C31           -0.7974    -0.2747    11.7203 C.3     
  32 C32            1.3066     2.6597     1.4842 C.ar    
  33 C33            2.4875     3.1622     0.8894 C.ar    
  34 C34            0.1218     3.2889     1.2052 C.ar    
  35 C35            0.1085     4.4023     0.3541 C.ar    
  36 N36            1.2189     4.8672    -0.1933 N.ar    
  37 C37            2.4030     4.2918     0.0384 C.ar    
  38 C38           -1.1760     5.0719     0.0612 C.2     
  39 S39           -2.7461     4.5974     0.7041 S.3     
  40 C40            3.5766     4.7958    -0.5491 C.ar    
  41 C41            4.7829     4.1832    -0.2923 C.ar    
  42 C42            4.8530     3.0665     0.5454 C.ar    
  43 C43            3.7318     2.5617     1.1296 C.ar    
  44 Cl44           3.5054     6.1816    -1.5922 Cl      
  45 O45            5.9175     4.6693    -0.8600 O.3     
  46 C46            7.1376     3.9907    -0.5554 C.3     
  47 N47           -1.3282     6.1111    -0.7092 N.2     
  48 C48           -2.5464     6.5736    -0.8541 C.2     
  49 C49           -3.5031     5.9180    -0.1844 C.2     
  50 C50           -2.8508     7.7698    -1.7187 C.3     
  51 C51           -3.2708     7.2982    -3.1123 C.3     
  52 C52           -3.9877     8.5777    -1.0896 C.3     
  53 C53            8.2975     4.6768    -1.2798 C.3     
  54 O54            8.0691     4.6363    -2.6899 O.3     
  55 C55            9.1604     5.1289    -3.4698 C.3     
  56 O56            8.3890     6.0369    -0.8510 O.3     
  57 C57            9.6852     6.6140    -1.0213 C.3     
  58 O58            0.6397    -3.4856     0.9519 O.3     
  59 C59            0.3715    -4.7426     0.2763 C.3     
  60 C60           -0.6602    -5.5412     1.0755 C.3     
  61 C61           -0.1748    -4.4620    -1.1250 C.3     
  62 C62            1.6671    -5.5491     0.1666 C.3     
  63 C63            1.1285    -3.5570     2.2044 C.2     
  64 O64            1.3257    -4.6400     2.7188 O.2     
  65 H65           -0.7095     1.2827     2.1234 H       
  66 H66           -0.8043    -0.8096     3.3339 H       
  67 H67            1.5371     1.4665     5.4374 H       
  68 H68            0.1355     2.8445     4.1928 H       
  69 H69           -1.2769     1.7613     4.4169 H       
  70 H70           -0.2441     2.7155     6.9790 H       
  71 H71            0.5742    -1.2672     1.3376 H       
  72 H72            2.0128    -0.5645     2.1244 H       
  73 H73            3.0804    -2.5576     4.1213 H       
  74 H74            1.8799    -4.6582     4.3722 H       
  75 H75            1.6336    -2.9441     6.8857 H       
  76 H76            1.6596    -4.7233     6.8412 H       
  77 H77            3.1005    -3.7997     6.3525 H       
  78 H78           -0.3780    -4.7168     5.3953 H       
  79 H79           -0.4040    -2.9376     5.4399 H       
  80 H80           -0.3887    -3.7886     3.8766 H       
  81 H81           -2.6295     1.2640     6.0510 H       
  82 H82           -5.3477     3.0953     6.9306 H       
  83 H83            0.2614     0.9480     9.6565 H       
  84 H84           -0.4879     3.3649     9.4657 H       
  85 H85           -2.1553     2.8980    10.1008 H       
  86 H86           -7.8767     2.9208     6.8395 H       
  87 H87           -7.7421     1.0971     6.5993 H       
  88 H88           -6.5363     0.8934     8.8217 H       
  89 H89           -6.6708     2.7171     9.0618 H       
  90 H90           -2.5144     0.7535    10.9233 H       
  91 H91           -1.9785    -0.6416     9.9565 H       
  92 H92            0.0706    -0.8146    11.3420 H       
  93 H93           -0.4653     0.5806    12.3088 H       
  94 H94           -1.3928    -0.9381    12.3476 H       
  95 H95           -0.7988     2.9279     1.6395 H       
  96 H96            5.8088     2.6004     0.7341 H       
  97 H97            3.8001     1.6984     1.7748 H       
  98 H98            7.3118     4.0216     0.5201 H       
  99 H99            7.0677     2.9532    -0.8825 H       
 100 H100          -4.5562     6.1578    -0.1874 H       
 101 H101          -1.9619     8.3954    -1.7994 H       
 102 H102          -4.1597     6.6726    -3.0316 H       
 103 H103          -3.4910     8.1634    -3.7377 H       
 104 H104          -2.4609     6.7226    -3.5605 H       
 105 H105          -4.8766     7.9521    -1.0089 H       
 106 H106          -3.6884     8.9137    -0.0968 H       
 107 H107          -4.2078     9.4429    -1.7149 H       
 108 H108           9.2281     4.1591    -1.0475 H       
 109 H109          10.0923     4.6979    -3.1038 H       
 110 H110           9.0163     4.8497    -4.5136 H       
 111 H111           9.2052     6.2148    -3.3871 H       
 112 H112          10.3920     6.1238    -0.3518 H       
 113 H113          10.0097     6.4803    -2.0533 H       
 114 H114           9.6425     7.6780    -0.7888 H       
 115 H115          -1.5832    -4.9666     1.1536 H       
 116 H116          -0.8615    -6.4847     0.5683 H       
 117 H117          -0.2710    -5.7411     2.0738 H       
 118 H118           0.5603    -3.8931    -1.6943 H       
 119 H119          -0.3760    -5.4056    -1.6322 H       
 120 H120          -1.0977    -3.8874    -1.0469 H       
 121 H121           2.0562    -5.7490     1.1649 H       
 122 H122           1.4658    -6.4927    -0.3406 H       
 123 H123           2.4021    -4.9802    -0.4027 H       
@<TRIPOS>BOND
   1    1    2 1
   2    1    6 1
   3    1    5 1
   4    1   65 1
   5    2    3 1
   6    2   10 1
   7    2   66 1
   8    3    4 1
   9    3   13 am
  10    4    5 1
  11    4    7 1
  12    4   67 1
  13    5   68 1
  14    5   69 1
  15    6   32 1
  16    7    8 2
  17    7    9 am
  18    9   18 1
  19    9   70 1
  20   10   11 1
  21   10   71 1
  22   10   72 1
  23   11   12 1
  24   11   63 am
  25   12   13 1
  26   12   15 1
  27   12   73 1
  28   13   14 2
  29   15   16 1
  30   15   17 1
  31   15   74 1
  32   16   75 1
  33   16   76 1
  34   16   77 1
  35   17   78 1
  36   17   79 1
  37   17   80 1
  38   18   19 1
  39   18   24 1
  40   18   25 1
  41   19   20 am
  42   19   21 2
  43   20   22 am
  44   20   81 1
  45   22   23 1
  46   22   28 2
  47   22   29 2
  48   23   26 1
  49   23   27 1
  50   23   82 1
  51   24   25 1
  52   24   30 1
  53   24   83 1
  54   25   84 1
  55   25   85 1
  56   26   27 1
  57   26   86 1
  58   26   87 1
  59   27   88 1
  60   27   89 1
  61   30   31 1
  62   30   90 1
  63   30   91 1
  64   31   92 1
  65   31   93 1
  66   31   94 1
  67   32   33 ar
  68   32   34 ar
  69   33   37 ar
  70   33   43 ar
  71   34   35 ar
  72   34   95 1
  73   35   36 ar
  74   35   38 1
  75   36   37 ar
  76   37   40 ar
  77   38   47 2
  78   38   39 1
  79   39   49 1
  80   40   41 ar
  81   40   44 1
  82   41   42 ar
  83   41   45 1
  84   42   43 ar
  85   42   96 1
  86   43   97 1
  87   45   46 1
  88   46   53 1
  89   46   98 1
  90   46   99 1
  91   47   48 1
  92   48   49 2
  93   48   50 1
  94   49  100 1
  95   50   51 1
  96   50   52 1
  97   50  101 1
  98   51  102 1
  99   51  103 1
 100   51  104 1
 101   52  105 1
 102   52  106 1
 103   52  107 1
 104   53   54 1
 105   53   56 1
 106   53  108 1
 107   54   55 1
 108   55  109 1
 109   55  110 1
 110   55  111 1
 111   56   57 1
 112   57  112 1
 113   57  113 1
 114   57  114 1
 115   58   59 1
 116   58   63 1
 117   59   60 1
 118   59   61 1
 119   59   62 1
 120   60  115 1
 121   60  116 1
 122   60  117 1
 123   61  118 1
 124   61  119 1
 125   61  120 1
 126   62  121 1
 127   62  122 1
 128   62  123 1
 129   63   64 2

#	End of record

