#	Name: ASD01411169
#	Creating user name:	WinNT
#	Creation time:	15. 06. 2019 19:19

#	Modifying user name:	WinNT
#	Modification time:	15. 06. 2019 19:19

#	Program:	/corina/corina34_cracker 3.40 0067  02.08.2006

@<TRIPOS>MOLECULE
ASD01411169
  65   69    0    0    0
SMALL
NO_CHARGES


@<TRIPOS>ATOM
   1 N1             0.5547     1.2389    -0.2817 N.pl3   
   2 C2             0.4977    -0.1356    -0.3075 C.ar    
   3 C3             1.8142    -0.6272    -0.2550 C.ar    
   4 C4             2.6956     0.5463    -0.1946 C.2     
   5 C5             1.8697     1.6584    -0.2140 C.2     
   6 C6            -0.5630    -1.0371    -0.3720 C.ar    
   7 C7            -0.3124    -2.3906    -0.3836 C.ar    
   8 C8             0.9907    -2.8706    -0.3315 C.ar    
   9 C9             2.0461    -2.0045    -0.2678 C.ar    
  10 C10            4.1698     0.5416    -0.1271 C.2     
  11 C11            4.8344     0.5181     1.1260 C.2     
  12 N12            6.1802     0.5141     1.1700 N.am    
  13 C13            6.9170     0.5324     0.0308 C.2     
  14 C14            6.3240     0.5553    -1.1880 C.2     
  15 C15            4.9304     0.5545    -1.2900 C.2     
  16 C16            2.3172     3.0518    -0.1704 C.2     
  17 O17            2.4882     3.6029     0.9015 O.2     
  18 N18            2.5400     3.7242    -1.3170 N.am    
  19 S19            2.9213     5.3351    -1.2714 S.o2    
  20 O20            3.1263     5.7372    -2.6188 O.2     
  21 O21            1.9691     5.9487    -0.4135 O.2     
  22 C22            4.4819     5.4791    -0.4663 C.ar    
  23 C23           -0.6088     2.1281    -0.3260 C.3     
  24 C24           -1.1380     2.3328     1.0701 C.ar    
  25 C25           -1.2447     3.5873     3.1015 C.ar    
  26 N26           -2.0935     2.7129     3.6082 N.ar    
  27 C27           -2.4909     1.6530     2.9214 C.ar    
  28 C28           -2.0244     1.4307     1.6296 C.ar    
  29 C29           -0.7421     3.4287     1.8259 C.ar    
  30 C30            5.7701     5.7439     1.5391 C.ar    
  31 C31            4.5391     5.6309     0.9050 C.ar    
  32 C32            5.6486     5.4341    -1.2078 C.ar    
  33 C33            6.8753     5.5462    -0.5800 C.ar    
  34 C34            6.9395     5.7036     0.7908 C.ar    
  35 N35            5.8315     5.8977     2.9260 N.am    
  36 S36            6.1885     7.3766     3.5801 S.o2    
  37 O37            6.1952     7.1472     4.9824 O.2     
  38 O38            7.3666     7.7858     2.8990 O.2     
  39 C39            4.7859     8.4282     3.1138 C.3     
  40 Cl40           1.2800    -4.5823    -0.3474 Cl      
  41 O41            4.1888     0.5018     2.1604 O.2     
  42 N42           -3.3864     0.7573     3.4941 N.pl3   
  43 H43           -1.5796    -0.6746    -0.4124 H       
  44 H44           -1.1369    -3.0865    -0.4332 H       
  45 H45            3.0564    -2.3840    -0.2276 H       
  46 H46            6.6299     0.4983     2.0293 H       
  47 H47            7.9950     0.5291     0.0962 H       
  48 H48            6.9298     0.5696    -2.0820 H       
  49 H49            4.4516     0.5677    -2.2580 H       
  50 H50            2.4769     3.2647    -2.1689 H       
  51 H51           -0.3155     3.0894    -0.7480 H       
  52 H52           -1.3849     1.6804    -0.9468 H       
  53 H53           -0.9427     4.4402     3.6911 H       
  54 H54           -2.3503     0.5655     1.0712 H       
  55 H55           -0.0476     4.1492     1.4197 H       
  56 H56            3.6279     5.6622     1.4839 H       
  57 H57            5.6012     5.3107    -2.2797 H       
  58 H58            7.7844     5.5103    -1.1619 H       
  59 H59            7.8980     5.7915     1.2806 H       
  60 H60            5.6651     5.1383     3.5060 H       
  61 H61            3.8803     8.0612     3.5967 H       
  62 H62            4.9781     9.4527     3.4327 H       
  63 H63            4.6566     8.4027     2.0318 H       
  64 H64           -3.7172     0.9101     4.3930 H       
  65 H65           -3.6804    -0.0206     2.9947 H       
@<TRIPOS>BOND
   1    1    2 1
   2    1    5 1
   3    1   23 1
   4    2    3 ar
   5    2    6 ar
   6    3    4 1
   7    3    9 ar
   8    4    5 2
   9    4   10 1
  10    5   16 1
  11    6    7 ar
  12    6   43 1
  13    7    8 ar
  14    7   44 1
  15    8    9 ar
  16    8   40 1
  17    9   45 1
  18   10   11 1
  19   10   15 2
  20   11   12 am
  21   11   41 2
  22   12   13 1
  23   12   46 1
  24   13   14 2
  25   13   47 1
  26   14   15 1
  27   14   48 1
  28   15   49 1
  29   16   17 2
  30   16   18 am
  31   18   19 am
  32   18   50 1
  33   19   20 2
  34   19   21 2
  35   19   22 1
  36   22   32 ar
  37   22   31 ar
  38   23   24 1
  39   23   51 1
  40   23   52 1
  41   24   29 ar
  42   24   28 ar
  43   25   26 ar
  44   25   29 ar
  45   25   53 1
  46   26   27 ar
  47   27   28 ar
  48   27   42 1
  49   28   54 1
  50   29   55 1
  51   30   31 ar
  52   30   34 ar
  53   30   35 1
  54   31   56 1
  55   32   33 ar
  56   32   57 1
  57   33   34 ar
  58   33   58 1
  59   34   59 1
  60   35   36 am
  61   35   60 1
  62   36   37 2
  63   36   38 2
  64   36   39 1
  65   39   61 1
  66   39   62 1
  67   39   63 1
  68   42   64 1
  69   42   65 1

#	End of record

