#	Name: ASD01001063
#	Creating user name:	WinNT
#	Creation time:	15. 06. 2019 18:55

#	Modifying user name:	WinNT
#	Modification time:	15. 06. 2019 18:55

#	Program:	/corina/corina34_cracker 3.40 0067  02.08.2006

@<TRIPOS>MOLECULE
ASD01001063
  51   53    0    0    0
SMALL
NO_CHARGES


@<TRIPOS>ATOM
   1 C1            -0.0350     1.5220    -0.0021 C.3     
   2 C2            -0.3504     0.1989     0.6467 C.ar    
   3 C3             1.3376     1.9757     0.4235 C.ar    
   4 C4            -0.0708     1.3678    -1.5007 C.ar    
   5 S5            -1.2645     2.7541     0.5085 S.3     
   6 C6            -0.1676     0.0352     2.0072 C.ar    
   7 C7            -0.8277    -0.8494    -0.1176 C.ar    
   8 C8             1.6371     3.3250     0.4628 C.ar    
   9 C9             2.2934     1.0423     0.7796 C.ar    
  10 C10           -0.8690     2.2007    -2.2624 C.ar    
  11 C11            0.6987     0.3971    -2.1143 C.ar    
  12 C12           -2.8383     1.9672     0.0676 C.3     
  13 C13           -0.4569    -1.1785     2.6023 C.ar    
  14 C14           -1.1170    -2.0631     0.4776 C.ar    
  15 C15            2.8946     3.7434     0.8526 C.ar    
  16 C16            3.5523     1.4557     1.1706 C.ar    
  17 C17           -0.8975     2.0629    -3.6376 C.ar    
  18 C18            0.6658     0.2556    -3.4890 C.ar    
  19 C19           -3.9857     2.9495     0.3114 C.3     
  20 C20           -0.9292    -2.2284     1.8371 C.ar    
  21 C21            3.8573     2.8086     1.2049 C.ar    
  22 C22           -0.1276     1.0925    -4.2511 C.ar    
  23 N23           -4.0099     3.3320     1.7295 N.3     
  24 C24           -5.2932     2.2958    -0.0550 C.2     
  25 O25            5.0952     3.2178     1.5883 O.3     
  26 O26           -6.0011     1.8350     0.8089 O.2     
  27 O27           -5.6712     2.2254    -1.3410 O.3     
  28 H28           -4.1444     2.5246     2.3195 H       
  29 H29           -3.1701     3.8300     1.9841 H       
  30 C30            6.0358     2.2001     1.9370 C.3     
  31 H31            6.9809     2.6615     2.2233 H       
  32 H32            5.6478     1.6178     2.7728 H       
  33 H33            6.1960     1.5446     1.0809 H       
  34 H34           -6.5179     1.7968    -1.5268 H       
  35 H35            0.2014     0.8555     2.6050 H       
  36 H36           -0.9750    -0.7201    -1.1796 H       
  37 H37            0.8875     4.0523     0.1881 H       
  38 H38            2.0556    -0.0108     0.7524 H       
  39 H39           -1.4705     2.9588    -1.7830 H       
  40 H40            1.3259    -0.2505    -1.5196 H       
  41 H41           -2.8204     1.6834    -0.9847 H       
  42 H42           -2.9846     1.0782     0.6812 H       
  43 H43           -0.3134    -1.3066     3.6651 H       
  44 H44           -1.4902    -2.8819    -0.1195 H       
  45 H45            3.1283     4.7974     0.8827 H       
  46 H46            4.2984     0.7262     1.4493 H       
  47 H47           -1.5216     2.7132    -4.2326 H       
  48 H48            1.2673    -0.5026    -3.9683 H       
  49 H49           -3.8395     3.8385    -0.3023 H       
  50 H50           -1.1549    -3.1767     2.3021 H       
  51 H51           -0.1533     0.9820    -5.3251 H       
@<TRIPOS>BOND
   1    1    2 1
   2    1    3 1
   3    1    5 1
   4    1    4 1
   5    2    6 ar
   6    2    7 ar
   7    3    8 ar
   8    3    9 ar
   9    4   11 ar
  10    4   10 ar
  11    5   12 1
  12    6   13 ar
  13    6   35 1
  14    7   14 ar
  15    7   36 1
  16    8   15 ar
  17    8   37 1
  18    9   16 ar
  19    9   38 1
  20   10   17 ar
  21   10   39 1
  22   11   18 ar
  23   11   40 1
  24   12   19 1
  25   12   41 1
  26   12   42 1
  27   13   20 ar
  28   13   43 1
  29   14   20 ar
  30   14   44 1
  31   15   21 ar
  32   15   45 1
  33   16   21 ar
  34   16   46 1
  35   17   22 ar
  36   17   47 1
  37   18   22 ar
  38   18   48 1
  39   19   23 1
  40   19   24 1
  41   19   49 1
  42   20   50 1
  43   21   25 1
  44   22   51 1
  45   23   28 1
  46   23   29 1
  47   24   26 2
  48   24   27 1
  49   25   30 1
  50   27   34 1
  51   30   31 1
  52   30   32 1
  53   30   33 1

#	End of record

