#	Name: ASD03240990
#	Creating user name:	WinNT
#	Creation time:	15. 06. 2019 20:35

#	Modifying user name:	WinNT
#	Modification time:	15. 06. 2019 20:35

#	Program:	/corina/corina34_cracker 3.40 0067  02.08.2006

@<TRIPOS>MOLECULE
ASD03240990
  59   64    0    0    0
SMALL
NO_CHARGES


@<TRIPOS>ATOM
   1 C1            -0.0168     1.3842     0.0097 C.ar    
   2 C2             0.0021    -0.0041     0.0020 C.ar    
   3 C3             1.2046    -0.6787    -0.0131 C.ar    
   4 C4             2.4025     0.0348    -0.0208 C.ar    
   5 C5             2.3802     1.4290    -0.0131 C.ar    
   6 C6             1.1743     2.0976     0.0021 C.ar    
   7 O7            -1.2034     2.0460     0.0189 O.3     
   8 N8             7.3439    -2.6194    -0.1909 N.pl3   
   9 C9             7.6029    -3.6264     0.6990 C.2     
  10 N10            6.7053    -4.0076     1.6250 N.2     
  11 C11            5.5321    -3.4385     1.7296 C.2     
  12 C12            5.1843    -2.3549     0.8130 C.ar    
  13 C13            3.9452    -1.7082     0.8749 C.ar    
  14 C14            3.6971    -0.6872    -0.0366 C.ar    
  15 C15            4.6914    -0.3482    -0.9752 C.ar    
  16 N16            5.8532    -0.9837    -1.0037 N.ar    
  17 C17            6.1307    -1.9590    -0.1559 C.ar    
  18 C18            8.8819    -4.0882     0.4193 C.2     
  19 C19            9.3767    -3.3445    -0.6446 C.2     
  20 N20            8.4669    -2.4754    -1.0146 N.2     
  21 C21           10.7351    -3.5131    -1.2750 C.3     
  22 C22            4.4329     0.7379    -1.9479 C.ar    
  23 C23            5.4711     1.5767    -2.3533 C.ar    
  24 C24            5.2240     2.5867    -3.2604 C.ar    
  25 C25            3.9497     2.7683    -3.7675 C.ar    
  26 C26            2.9159     1.9397    -3.3693 C.ar    
  27 C27            3.1514     0.9228    -2.4670 C.ar    
  28 C28            3.6866     3.8737    -4.7575 C.3     
  29 C29            2.5538     3.5568    -5.7480 C.3     
  30 C30            2.1111     5.0209    -5.5884 C.3     
  31 C31            2.7862     4.9922    -4.2071 C.3     
  32 C32            2.7815     5.9753    -6.5786 C.3     
  33 O33            0.6930     5.1869    -5.5292 O.3     
  34 N34            4.9109     4.3673    -5.4021 N.3     
  35 H35           -0.9261    -0.5562     0.0083 H       
  36 H36            1.2186    -1.7586    -0.0187 H       
  37 H37            3.3063     1.9845    -0.0190 H       
  38 H38            1.1563     3.1775     0.0081 H       
  39 H39           -1.5427     2.2328     0.9049 H       
  40 H40            4.8303    -3.7652     2.4827 H       
  41 H41            3.2043    -1.9933     1.6071 H       
  42 H42            9.3995    -4.8828     0.9362 H       
  43 H43           10.6714    -4.2376    -2.0870 H       
  44 H44           11.0745    -2.5551    -1.6687 H       
  45 H45           11.4419    -3.8688    -0.5254 H       
  46 H46            6.4662     1.4361    -1.9578 H       
  47 H47            6.0269     3.2370    -3.5748 H       
  48 H48            1.9232     2.0867    -3.7685 H       
  49 H49            2.3445     0.2738    -2.1602 H       
  50 H50            2.9056     3.3138    -6.7506 H       
  51 H51            1.8290     2.8375    -5.3668 H       
  52 H52            2.1250     4.6653    -3.4046 H       
  53 H53            3.3258     5.9080    -3.9657 H       
  54 H54            2.5393     5.6714    -7.5970 H       
  55 H55            2.4210     6.9894    -6.4066 H       
  56 H56            3.8620     5.9449    -6.4377 H       
  57 H57            0.4084     6.1056    -5.4288 H       
  58 H58            5.6264     4.5623    -4.7179 H       
  59 H59            5.2426     3.7145    -6.0962 H       
@<TRIPOS>BOND
   1    1    2 ar
   2    1    6 ar
   3    1    7 1
   4    2    3 ar
   5    2   35 1
   6    3    4 ar
   7    3   36 1
   8    4    5 ar
   9    4   14 1
  10    5    6 ar
  11    5   37 1
  12    6   38 1
  13    7   39 1
  14    8    9 1
  15    8   17 1
  16    8   20 1
  17    9   10 1
  18    9   18 2
  19   10   11 2
  20   11   12 1
  21   11   40 1
  22   12   13 ar
  23   12   17 ar
  24   13   14 ar
  25   13   41 1
  26   14   15 ar
  27   15   16 ar
  28   15   22 1
  29   16   17 ar
  30   18   19 1
  31   18   42 1
  32   19   20 2
  33   19   21 1
  34   21   43 1
  35   21   44 1
  36   21   45 1
  37   22   23 ar
  38   22   27 ar
  39   23   24 ar
  40   23   46 1
  41   24   25 ar
  42   24   47 1
  43   25   26 ar
  44   25   28 1
  45   26   27 ar
  46   26   48 1
  47   27   49 1
  48   28   29 1
  49   28   31 1
  50   28   34 1
  51   29   30 1
  52   29   50 1
  53   29   51 1
  54   30   31 1
  55   30   32 1
  56   30   33 1
  57   31   52 1
  58   31   53 1
  59   32   54 1
  60   32   55 1
  61   32   56 1
  62   33   57 1
  63   34   58 1
  64   34   59 1

#	End of record

