#	Name: ASD05430305
#	Creating user name:	WinNT
#	Creation time:	15. 06. 2019 21:00

#	Modifying user name:	WinNT
#	Modification time:	15. 06. 2019 21:00

#	Program:	/corina/corina34_cracker 3.40 0067  02.08.2006

@<TRIPOS>MOLECULE
ASD05430305
  55   60    0    0    0
SMALL
NO_CHARGES


@<TRIPOS>ATOM
   1 C1             1.2834    -0.6897    -0.4909 C.ar    
   2 C2             0.0801    -0.0373    -0.2492 C.ar    
   3 C3             0.0574     1.3386    -0.0535 C.ar    
   4 C4             1.2286     2.0623    -0.0989 C.ar    
   5 C5             2.4420     1.4103    -0.3418 C.ar    
   6 C6             2.4598     0.0255    -0.5376 C.ar    
   7 O7             2.4883     4.2418    -0.4300 O.3     
   8 C8             3.6625     3.5279    -0.3566 C.2     
   9 C9             3.6959     2.1790    -0.3917 C.2     
  10 C10            2.5516     5.4341    -1.2242 C.3     
  11 C11            3.6199     6.4542    -0.8013 C.3     
  12 N12            4.8569     5.7199    -0.5373 N.pl3   
  13 C13            4.8887     4.3541    -0.2367 C.2     
  14 C14            6.2448     6.1759    -0.5413 C.3     
  15 O15            6.9365     5.1304     0.1746 O.3     
  16 N16            6.0688     4.0048     0.1462 N.2     
  17 C17            6.7639     6.2883    -1.9516 C.ar    
  18 C18            6.3767     7.5118     0.1926 C.3     
  19 N19           -1.1139    -0.7690    -0.2030 N.pl3   
  20 C20           -2.3693    -0.2668     0.0241 C.2     
  21 C21           -3.2200    -1.3099    -0.0168 C.2     
  22 N22           -2.5092    -2.4207    -0.2618 N.2     
  23 C23           -1.2472    -2.1092    -0.3807 C.2     
  24 C24           -4.7126    -1.2412     0.1792 C.3     
  25 C25            5.8823     6.4759    -2.9998 C.ar    
  26 C26            6.3585     6.5789    -4.2934 C.ar    
  27 C27            7.7162     6.4950    -4.5389 C.ar    
  28 C28            8.5979     6.3083    -3.4907 C.ar    
  29 C29            8.1221     6.2096    -2.1966 C.ar    
  30 C30            2.2554     5.3042    -2.7178 C.3     
  31 C31            1.2414     5.9785    -1.7908 C.3     
  32 H32            1.2967    -1.7596    -0.6378 H       
  33 H33           -0.8799     1.8412     0.1340 H       
  34 H34            1.2100     3.1315     0.0525 H       
  35 H35            3.3944    -0.4823    -0.7252 H       
  36 H36            4.6429     1.6638    -0.4564 H       
  37 H37            3.7817     7.1738    -1.6039 H       
  38 H38            3.2984     6.9730     0.1017 H       
  39 H39            6.0478     7.3932     1.2250 H       
  40 H40            7.4182     7.8333     0.1778 H       
  41 H41            5.7583     8.2608    -0.3020 H       
  42 H42           -2.6266     0.7669     0.2023 H       
  43 H43           -0.4429    -2.8018    -0.5802 H       
  44 H44           -5.1985    -1.0822    -0.7834 H       
  45 H45           -5.0653    -2.1764     0.6142 H       
  46 H46           -4.9535    -0.4155     0.8487 H       
  47 H47            4.8215     6.5415    -2.8079 H       
  48 H48            5.6696     6.7248    -5.1123 H       
  49 H49            8.0882     6.5748    -5.5497 H       
  50 H50            9.6587     6.2424    -3.6825 H       
  51 H51            8.8109     6.0638    -1.3776 H       
  52 H52            2.8165     5.9430    -3.3998 H       
  53 H53            2.0085     4.3128    -3.0977 H       
  54 H54            0.3275     5.4307    -1.5609 H       
  55 H55            1.1355     7.0609    -1.8630 H       
@<TRIPOS>BOND
   1    1    2 ar
   2    1    6 ar
   3    1   32 1
   4    2    3 ar
   5    2   19 1
   6    3    4 ar
   7    3   33 1
   8    4    5 ar
   9    4   34 1
  10    5    6 ar
  11    5    9 1
  12    6   35 1
  13    7    8 1
  14    7   10 1
  15    8    9 2
  16    8   13 1
  17    9   36 1
  18   10   11 1
  19   10   30 1
  20   10   31 1
  21   11   12 1
  22   11   37 1
  23   11   38 1
  24   12   13 1
  25   12   14 1
  26   13   16 2
  27   14   15 1
  28   14   17 1
  29   14   18 1
  30   15   16 1
  31   17   25 ar
  32   17   29 ar
  33   18   39 1
  34   18   40 1
  35   18   41 1
  36   19   20 1
  37   19   23 1
  38   20   21 2
  39   20   42 1
  40   21   22 1
  41   21   24 1
  42   22   23 2
  43   23   43 1
  44   24   44 1
  45   24   45 1
  46   24   46 1
  47   25   26 ar
  48   25   47 1
  49   26   27 ar
  50   26   48 1
  51   27   28 ar
  52   27   49 1
  53   28   29 ar
  54   28   50 1
  55   29   51 1
  56   30   31 1
  57   30   52 1
  58   30   53 1
  59   31   54 1
  60   31   55 1

#	End of record

