#	Name: ASD01730052
#	Creating user name:	WinNT
#	Creation time:	15. 06. 2019 19:23

#	Modifying user name:	WinNT
#	Modification time:	15. 06. 2019 19:23

#	Program:	/corina/corina34_cracker 3.40 0067  02.08.2006

@<TRIPOS>MOLECULE
ASD01730052
  48   50    0    0    0
SMALL
NO_CHARGES


@<TRIPOS>ATOM
   1 C1            -0.0169     1.3927     0.0097 C.ar    
   2 C2             0.0021    -0.0041     0.0020 C.ar    
   3 C3             1.2254    -0.6783    -0.0133 C.ar    
   4 C4             2.4207     0.0475    -0.0208 C.ar    
   5 C5             2.3959     1.4255    -0.0127 C.ar    
   6 C6             1.1886     2.1040     0.0020 C.ar    
   7 C7            -1.3031     2.1156     0.0197 C.2     
   8 O8            -1.8281     2.4078     1.0768 O.2     
   9 N9            -1.8961     2.4522    -1.1428 N.am    
  10 F10            1.1744     3.4549     0.0094 F       
  11 F11           -1.1564    -0.6991     0.0098 F       
  12 C12            1.2564    -2.1533    -0.0210 C.2     
  13 O13            0.2165    -2.7832    -0.0141 O.2     
  14 N14            2.4374    -2.8025    -0.0358 N.am    
  15 C15           -1.2636     2.1002    -2.4165 C.3     
  16 C16           -1.7502     0.7202    -2.8634 C.3     
  17 C17           -3.1732     3.1700    -1.1329 C.3     
  18 C18           -2.9109     4.6773    -1.1259 C.3     
  19 S19            3.9306    -5.1599    -0.0622 S.3     
  20 C20            2.4664    -4.1871    -0.0430 C.2     
  21 N21            1.4250    -4.9439    -0.0363 N.2     
  22 C22            1.6149    -6.2793    -0.0445 C.ar    
  23 C23            2.9670    -6.6352    -0.0596 C.ar    
  24 C24            0.6490    -7.3075    -0.0393 C.ar    
  25 C25            1.0336    -8.6243    -0.0485 C.ar    
  26 C26            2.3818    -8.9672    -0.0630 C.ar    
  27 C27            3.3439    -7.9757    -0.0692 C.ar    
  28 O28            2.7519   -10.2756    -0.0710 O.3     
  29 C29            1.7033   -11.2465    -0.0637 C.3     
  30 F30            0.9018   -11.0756    -1.1975 F       
  31 F31            2.2572   -12.5311    -0.0735 F       
  32 F32            0.9245   -11.0831     1.0869 F       
  33 H33            3.3666    -0.4736    -0.0326 H       
  34 H34            3.3231     1.9793    -0.0179 H       
  35 H35            3.2670    -2.2999    -0.0413 H       
  36 H36           -1.5289     2.8408    -3.1709 H       
  37 H37           -0.1810     2.0807    -2.2914 H       
  38 H38           -1.4849    -0.0205    -2.1090 H       
  39 H39           -2.8328     0.7396    -2.9885 H       
  40 H40           -1.2796     0.4583    -3.8110 H       
  41 H41           -3.7459     2.9049    -2.0216 H       
  42 H42           -3.7374     2.8952    -0.2417 H       
  43 H43           -2.3382     4.9424    -0.2372 H       
  44 H44           -2.3466     4.9521    -2.0171 H       
  45 H45           -3.8611     5.2114    -1.1185 H       
  46 H46           -0.4012    -7.0561    -0.0277 H       
  47 H47            0.2834    -9.4013    -0.0440 H       
  48 H48            4.3907    -8.2410    -0.0812 H       
@<TRIPOS>BOND
   1    1    2 ar
   2    1    6 ar
   3    1    7 1
   4    2    3 ar
   5    2   11 1
   6    3    4 ar
   7    3   12 1
   8    4    5 ar
   9    4   33 1
  10    5    6 ar
  11    5   34 1
  12    6   10 1
  13    7    8 2
  14    7    9 am
  15    9   15 1
  16    9   17 1
  17   12   13 2
  18   12   14 am
  19   14   20 1
  20   14   35 1
  21   15   16 1
  22   15   36 1
  23   15   37 1
  24   16   38 1
  25   16   39 1
  26   16   40 1
  27   17   18 1
  28   17   41 1
  29   17   42 1
  30   18   43 1
  31   18   44 1
  32   18   45 1
  33   19   20 1
  34   19   23 1
  35   20   21 2
  36   21   22 1
  37   22   23 ar
  38   22   24 ar
  39   23   27 ar
  40   24   25 ar
  41   24   46 1
  42   25   26 ar
  43   25   47 1
  44   26   27 ar
  45   26   28 1
  46   27   48 1
  47   28   29 1
  48   29   30 1
  49   29   31 1
  50   29   32 1

#	End of record

