#	Name: ASD03740191
#	Creating user name:	WinNT
#	Creation time:	15. 06. 2019 20:46

#	Modifying user name:	WinNT
#	Modification time:	15. 06. 2019 20:46

#	Program:	/corina/corina34_cracker 3.40 0067  02.08.2006

@<TRIPOS>MOLECULE
ASD03740191
  48   49    0    0    0
SMALL
NO_CHARGES


@<TRIPOS>ATOM
   1 Cl1            0.0000     0.0000     0.0000 Cl      
   2 H2             0.0000     1.3700     0.0000 H       
   3 C3            12.4183    11.6025     8.2375 C.ar    
   4 C4            12.4372    10.2130     8.2298 C.ar    
   5 C5            11.2736     9.4977     8.2371 C.ar    
   6 C6            10.0503    10.1638     8.2528 C.ar    
   7 C7            10.0297    11.5716     8.2610 C.ar    
   8 C8            11.2345    12.2816     8.2581 C.ar    
   9 N9             8.7442     9.7487     8.2632 N.pl3   
  10 N10            7.9065    10.8685     8.2777 N.2     
  11 C11            8.6201    11.9614     8.2770 C.2     
  12 C12            8.2968     8.3537     8.2592 C.3     
  13 C13            8.1574     7.8668     9.6785 C.ar    
  14 C14            6.9536     8.0090    10.3429 C.ar    
  15 C15            6.8257     7.5624    11.6449 C.ar    
  16 C16            7.9015     6.9731    12.2822 C.ar    
  17 C17            9.1051     6.8301    11.6175 C.ar    
  18 C18            9.2317     7.2728    10.3141 C.ar    
  19 O19            8.1396    13.2329     8.2893 O.3     
  20 C20            6.7193    13.3897     8.3040 C.3     
  21 C21            6.3708    14.8794     8.3164 C.3     
  22 N22            6.8170    15.4972     7.0605 N.3     
  23 C23            6.0602    14.9707     5.9168 C.3     
  24 C24            6.7166    16.9611     7.1292 C.3     
  25 C25           13.7172    12.3667     8.2292 C.3     
  26 H26           13.3834     9.6925     8.2176 H       
  27 H27           11.3019     8.4181     8.2303 H       
  28 H28           11.2282    13.3616     8.2643 H       
  29 H29            7.3334     8.2826     7.7544 H       
  30 H30            9.0282     7.7390     7.7344 H       
  31 H31            6.1131     8.4694     9.8449 H       
  32 H32            5.8854     7.6742    12.1642 H       
  33 H33            7.8018     6.6249    13.2997 H       
  34 H34            9.9457     6.3700    12.1156 H       
  35 H35           10.1720     7.1610     9.7947 H       
  36 H36            6.2932    12.9242     7.4152 H       
  37 H37            6.3104    12.9135     9.1951 H       
  38 H38            5.2921    14.9994     8.4171 H       
  39 H39            6.8701    15.3624     9.1563 H       
  40 H40            5.0000    15.1836     6.0537 H       
  41 H41            6.4106    15.4447     5.0000 H       
  42 H42            6.2084    13.8930     5.8482 H       
  43 H43            7.3421    17.3305     7.9419 H       
  44 H44            7.0532    17.3930     6.1866 H       
  45 H45            5.6802    17.2462     7.3099 H       
  46 H46           14.0205    12.5564     7.1996 H       
  47 H47           13.5840    13.3152     8.7494 H       
  48 H48           14.4865    11.7811     8.7325 H       
@<TRIPOS>BOND
   1    1    2 1
   2    3    4 ar
   3    3   25 1
   4    3    8 ar
   5    4    5 ar
   6    4   26 1
   7    5    6 ar
   8    5   27 1
   9    6    7 ar
  10    6    9 1
  11    7    8 ar
  12    7   11 1
  13    8   28 1
  14    9   10 1
  15    9   12 1
  16   10   11 2
  17   11   19 1
  18   12   13 1
  19   12   29 1
  20   12   30 1
  21   13   14 ar
  22   13   18 ar
  23   14   15 ar
  24   14   31 1
  25   15   16 ar
  26   15   32 1
  27   16   17 ar
  28   16   33 1
  29   17   18 ar
  30   17   34 1
  31   18   35 1
  32   19   20 1
  33   20   21 1
  34   20   36 1
  35   20   37 1
  36   21   22 1
  37   21   38 1
  38   21   39 1
  39   22   23 1
  40   22   24 1
  41   23   40 1
  42   23   41 1
  43   23   42 1
  44   24   43 1
  45   24   44 1
  46   24   45 1
  47   25   46 1
  48   25   47 1
  49   25   48 1

#	End of record

