#	Name: ASD04230160
#	Creating user name:	WinNT
#	Creation time:	15. 06. 2019 20:48

#	Modifying user name:	WinNT
#	Modification time:	15. 06. 2019 20:48

#	Program:	/corina/corina34_cracker 3.40 0067  02.08.2006

@<TRIPOS>MOLECULE
ASD04230160
  42   45    0    0    0
SMALL
NO_CHARGES


@<TRIPOS>ATOM
   1 C1             1.5360     4.6862     1.7201 C.ar    
   2 C2             2.5439     5.3840     2.3698 C.ar    
   3 C3             3.8005     4.8590     2.4683 C.ar    
   4 C4             4.0825     3.6081     1.9004 C.ar    
   5 C5             3.0564     2.8818     1.2693 C.ar    
   6 C6             1.7832     3.4396     1.1729 C.ar    
   7 C7             5.3934     3.0678     1.9620 C.2     
   8 C8             5.6628     1.9284     1.2155 C.2     
   9 C9             4.5671     1.3877     0.3905 C.2     
  10 O10            3.2979     1.6423     0.7794 O.3     
  11 C11            6.9879     1.2871     1.2463 C.2     
  12 N12            7.2188     0.1818     0.5105 N.am    
  13 O13            7.8740     1.7548     1.9358 O.2     
  14 C14            8.5059    -0.3623     0.4510 C.ar    
  15 C15            8.6754    -1.7390     0.3688 C.ar    
  16 C16            9.9458    -2.2802     0.3097 C.ar    
  17 C17           11.0532    -1.4563     0.3321 C.ar    
  18 C18           10.8926    -0.0740     0.4140 C.ar    
  19 C19            9.6135     0.4724     0.4682 C.ar    
  20 C20           12.0822     0.8129     0.4386 C.ar    
  21 O21            4.7981     0.7333    -0.6091 O.2     
  22 O22            0.7869     2.7609     0.5439 O.3     
  23 C23           13.3623     0.2665     0.3800 C.ar    
  24 C24           11.9219     2.1946     0.5147 C.ar    
  25 C25           13.0329     3.0172     0.5374 C.ar    
  26 C26           14.3039     2.4694     0.4847 C.ar    
  27 C27           14.4678     1.0965     0.4032 C.ar    
  28 F28           15.7098     0.5673     0.3521 F       
  29 F29           12.8786     4.3574     0.6107 F       
  30 H30            0.5488     5.1178     1.6448 H       
  31 H31            2.3328     6.3513     2.8012 H       
  32 H32            4.5764     5.4065     2.9826 H       
  33 H33            6.1577     3.5287     2.5702 H       
  34 H34            6.4924    -0.2364     0.0223 H       
  35 H35            7.8122    -2.3878     0.3513 H       
  36 H36           10.0724    -3.3508     0.2462 H       
  37 H37           12.0443    -1.8828     0.2865 H       
  38 H38            9.4841     1.5428     0.5313 H       
  39 H39            0.2743     2.1847     1.1273 H       
  40 H40           13.4910    -0.8040     0.3168 H       
  41 H41           10.9312     2.6227     0.5555 H       
  42 H42           15.1696     3.1149     0.5023 H       
@<TRIPOS>BOND
   1    1    2 ar
   2    1    6 ar
   3    1   30 1
   4    2    3 ar
   5    2   31 1
   6    3    4 ar
   7    3   32 1
   8    4    5 ar
   9    4    7 1
  10    5    6 ar
  11    5   10 1
  12    6   22 1
  13    7    8 2
  14    7   33 1
  15    8    9 1
  16    8   11 1
  17    9   10 1
  18    9   21 2
  19   11   12 am
  20   11   13 2
  21   12   14 1
  22   12   34 1
  23   14   15 ar
  24   14   19 ar
  25   15   16 ar
  26   15   35 1
  27   16   17 ar
  28   16   36 1
  29   17   18 ar
  30   17   37 1
  31   18   19 ar
  32   18   20 1
  33   19   38 1
  34   20   23 ar
  35   20   24 ar
  36   22   39 1
  37   23   27 ar
  38   23   40 1
  39   24   25 ar
  40   24   41 1
  41   25   26 ar
  42   25   29 1
  43   26   27 ar
  44   26   42 1
  45   27   28 1

#	End of record

