#	Name: ASD05143089
#	Creating user name:	WinNT
#	Creation time:	15. 06. 2019 20:57

#	Modifying user name:	WinNT
#	Modification time:	15. 06. 2019 20:57

#	Program:	/corina/corina34_cracker 3.40 0067  02.08.2006

@<TRIPOS>MOLECULE
ASD05143089
 145  148    0    0    0
SMALL
NO_CHARGES


@<TRIPOS>ATOM
   1 C1             1.8339     3.5194     0.8205 C.2     
   2 C2             2.3905     2.1190     0.8353 C.3     
   3 N3             2.6514     4.5716     1.0233 N.am    
   4 O4             0.6513     3.6998     0.6212 O.2     
   5 C5             2.1103     5.9329     1.0089 C.3     
   6 C6             1.4757     6.2152    -0.3544 C.3     
   7 C7             1.0663     6.0699     2.0870 C.2     
   8 C8             2.5593     6.1988    -1.4345 C.3     
   9 C9             1.9247     6.4811    -2.7978 C.3     
  10 N10            2.9622     6.4654    -3.8320 N.pl3   
  11 C11            2.6271     6.6955    -5.1454 C.2     
  12 N12            3.6007     6.6808    -6.1159 N.pl3   
  13 N13            1.3864     6.9276    -5.4704 N.2     
  14 O14            0.5374     5.0808     2.5482 O.2     
  15 N15            0.7203     7.2917     2.5386 N.am    
  16 C16           -0.2947     7.4249     3.5867 C.3     
  17 C17           -0.0776     8.7370     4.3430 C.3     
  18 C18            1.3808     8.8291     4.7960 C.3     
  19 C19            1.8954    10.2525     4.5721 C.3     
  20 N20            1.5339    10.6963     3.2191 N.3     
  21 C21            2.2088    11.9562     2.8798 C.3     
  22 C22            1.3476    12.7451     1.8914 C.3     
  23 C23            2.2176    13.7705     1.1617 C.3     
  24 C24            1.3457    14.9384     0.6959 C.3     
  25 N25            0.9089    14.6847    -0.6915 N.am    
  26 C26            2.1432    16.2160     0.7484 C.2     
  27 N27            2.3131    16.8565     1.9220 N.am    
  28 O28            2.6321    16.6678    -0.2654 O.2     
  29 C29           -0.4288    14.5269    -0.8903 C.2     
  30 O30           -1.2014    14.5880     0.0426 O.2     
  31 C31           -0.9347    14.2756    -2.2875 C.3     
  32 N32           -2.3238    13.7699    -2.2066 N.am    
  33 C33           -0.9095    15.5812    -3.0848 C.3     
  34 C34           -2.5060    12.4903    -2.6496 C.2     
  35 O35           -1.5694    11.8418    -3.0655 O.2     
  36 C36           -3.8915    11.8991    -2.6114 C.3     
  37 N37           -3.7878    10.4315    -2.7376 N.am    
  38 C38           -4.5635    12.2532    -1.2833 C.3     
  39 C39           -4.2736     9.6957    -1.7007 C.2     
  40 O40           -4.7625    10.2430    -0.7351 O.2     
  41 C41           -4.1966     8.1923    -1.7680 C.3     
  42 C42           -1.2984    15.3044    -4.5142 C.2     
  43 C43           -2.6605    15.2315    -5.0482 C.ar    
  44 C44           -2.5257    14.9530    -6.4204 C.ar    
  45 N45           -1.1776    14.8658    -6.6867 N.pl3   
  46 C46           -0.4621    15.0836    -5.5408 C.2     
  47 C47           -3.9314    15.3756    -4.4881 C.ar    
  48 C48           -5.0391    15.2452    -5.2772 C.ar    
  49 C49           -4.9114    14.9700    -6.6320 C.ar    
  50 C50           -3.6673    14.8247    -7.2052 C.ar    
  51 N51           -4.3736     7.6485    -0.4018 N.am    
  52 C52           -2.8310     7.7719    -2.3151 C.3     
  53 C53           -2.7308     8.1599    -3.7679 C.ar    
  54 C54           -1.8145     9.1149    -4.1660 C.ar    
  55 C55           -1.7216     9.4722    -5.5006 C.ar    
  56 C56           -2.5469     8.8724    -6.4361 C.ar    
  57 C57           -3.4642     7.9161    -6.0363 C.ar    
  58 C58           -3.5514     7.5563    -4.7020 C.ar    
  59 C59           -1.6658     7.4266     2.9609 C.2     
  60 O60           -2.4546     8.3135     3.2101 O.2     
  61 C61           -6.0489    11.8926    -1.3513 C.3     
  62 C62           -6.6883    12.1040     0.0225 C.3     
  63 N63           -8.1106    11.7587    -0.0425 N.pl3   
  64 C64           -8.8971    11.8704     1.0796 C.2     
  65 N65          -10.2318    11.5464     1.0186 N.pl3   
  66 N66           -8.3774    12.2835     2.2013 N.2     
  67 N67           -2.0060     6.4184     2.1115 N.am    
  68 C68           -3.3607     6.4762     1.5269 C.3     
  69 C69           -3.2676     7.0571     0.1396 C.2     
  70 O70           -2.2296     7.0003    -0.4852 O.2     
  71 C71           -4.2561     7.3627     2.3948 C.3     
  72 C72           -4.2289     6.8648     3.8169 C.2     
  73 O73           -3.5592     5.8963     4.1077 O.2     
  74 N74           -4.9487     7.4957     4.7657 N.am    
  75 F75           -0.8262    10.4061    -5.8894 F       
  76 F76           -4.2705     7.3302    -6.9483 F       
  77 H77            3.4635     2.1565     1.0232 H       
  78 H78            1.9038     1.5428     1.6222 H       
  79 H79            2.2068     1.6448    -0.1288 H       
  80 H80            3.5979     4.4275     1.1787 H       
  81 H81            2.9149     6.6457     1.1897 H       
  82 H82            0.7318     5.4495    -0.5744 H       
  83 H83            0.9956     7.1936    -0.3361 H       
  84 H84            3.3032     6.9645    -1.2145 H       
  85 H85            3.0394     5.2204    -1.4527 H       
  86 H86            1.1808     5.7153    -3.0178 H       
  87 H87            1.4446     7.4595    -2.7795 H       
  88 H88            3.8855     6.2927    -3.5901 H       
  89 H89            4.5241     6.5081    -5.8741 H       
  90 H90            3.3643     6.8432    -7.0426 H       
  91 H91            1.1500     7.0899    -6.3970 H       
  92 H92            1.1432     8.0829     2.1697 H       
  93 H93           -0.2128     6.5880     4.2801 H       
  94 H94           -0.3082     9.5768     3.6875 H       
  95 H95           -0.7313     8.7664     5.2147 H       
  96 H96            1.4488     8.5806     5.8551 H       
  97 H97            1.9854     8.1293     4.2191 H       
  98 H98            1.4457    10.9211     5.3061 H       
  99 H99            2.9797    10.2684     4.6822 H       
 100 H100           1.7386     9.9813     2.5372 H       
 101 H101           2.3551    12.5453     3.7851 H       
 102 H102           3.1762    11.7396     2.4267 H       
 103 H103           0.9074    12.0606     1.1663 H       
 104 H104           0.5542    13.2610     2.4321 H       
 105 H105           2.9887    14.1397     1.8379 H       
 106 H106           2.6867    13.2999     0.2977 H       
 107 H107           0.4731    15.0236     1.3435 H       
 108 H108           1.5426    14.6335    -1.4241 H       
 109 H109           1.9221    16.4951     2.7328 H       
 110 H110           2.8264    17.6788     1.9558 H       
 111 H111          -0.3035    13.5337    -2.7768 H       
 112 H112          -3.0533    14.3091    -1.8631 H       
 113 H113          -1.6143    16.2880    -2.6469 H       
 114 H114           0.0945    16.0046    -3.0569 H       
 115 H115          -4.4807    12.2959    -3.4382 H       
 116 H116          -3.3940    10.0134    -3.5192 H       
 117 H117          -4.0904    11.6939    -0.4762 H       
 118 H118          -4.4572    13.3217    -1.0959 H       
 119 H119          -4.9860     7.8141    -2.4175 H       
 120 H120          -0.7924    14.6812    -7.5576 H       
 121 H121           0.6156    15.0718    -5.4711 H       
 122 H122          -4.0384    15.5891    -3.4349 H       
 123 H123          -6.0219    15.3568    -4.8436 H       
 124 H124          -5.7964    14.8694    -7.2428 H       
 125 H125          -3.5784    14.6110    -8.2601 H       
 126 H126          -5.2160     7.7084     0.0753 H       
 127 H127          -2.0438     8.2716    -1.7505 H       
 128 H128          -2.7177     6.6921    -2.2188 H       
 129 H129          -1.1710     9.5830    -3.4358 H       
 130 H130          -2.4753     9.1507    -7.4772 H       
 131 H131          -4.2670     6.8101    -4.3898 H       
 132 H132          -6.5441    12.5293    -2.0844 H       
 133 H133          -6.1562    10.8485    -1.6452 H       
 134 H134          -6.1930    11.4674     0.7557 H       
 135 H135          -6.5810    13.1481     0.3165 H       
 136 H136          -8.4974    11.4514    -0.8773 H       
 137 H137         -10.6186    11.2390     0.1838 H       
 138 H138         -10.7867    11.6252     1.8103 H       
 139 H139          -8.9323    12.3622     2.9930 H       
 140 H140          -1.3902     5.6989     1.9014 H       
 141 H141          -3.7791     5.4711     1.4747 H       
 142 H142          -3.8919     8.3895     2.3624 H       
 143 H143          -5.2779     7.3275     2.0170 H       
 144 H144          -5.4843     8.2703     4.5332 H       
 145 H145          -4.9312     7.1752     5.6811 H       
@<TRIPOS>BOND
   1    1    2 1
   2    1    3 am
   3    1    4 2
   4    2   77 1
   5    2   78 1
   6    2   79 1
   7    3    5 1
   8    3   80 1
   9    5    6 1
  10    5    7 1
  11    5   81 1
  12    6    8 1
  13    6   82 1
  14    6   83 1
  15    7   14 2
  16    7   15 am
  17    8    9 1
  18    8   84 1
  19    8   85 1
  20    9   10 1
  21    9   86 1
  22    9   87 1
  23   10   11 1
  24   10   88 1
  25   11   12 1
  26   11   13 2
  27   12   89 1
  28   12   90 1
  29   13   91 1
  30   15   16 1
  31   15   92 1
  32   16   17 1
  33   16   59 1
  34   16   93 1
  35   17   18 1
  36   17   94 1
  37   17   95 1
  38   18   19 1
  39   18   96 1
  40   18   97 1
  41   19   20 1
  42   19   98 1
  43   19   99 1
  44   20   21 1
  45   20  100 1
  46   21   22 1
  47   21  101 1
  48   21  102 1
  49   22   23 1
  50   22  103 1
  51   22  104 1
  52   23   24 1
  53   23  105 1
  54   23  106 1
  55   24   25 1
  56   24   26 1
  57   24  107 1
  58   25   29 am
  59   25  108 1
  60   26   27 am
  61   26   28 2
  62   27  109 1
  63   27  110 1
  64   29   30 2
  65   29   31 1
  66   31   32 1
  67   31   33 1
  68   31  111 1
  69   32   34 am
  70   32  112 1
  71   33   42 1
  72   33  113 1
  73   33  114 1
  74   34   35 2
  75   34   36 1
  76   36   37 1
  77   36   38 1
  78   36  115 1
  79   37   39 am
  80   37  116 1
  81   38   61 1
  82   38  117 1
  83   38  118 1
  84   39   40 2
  85   39   41 1
  86   41   51 1
  87   41   52 1
  88   41  119 1
  89   42   43 1
  90   42   46 2
  91   43   44 ar
  92   43   47 ar
  93   44   45 1
  94   44   50 ar
  95   45   46 1
  96   45  120 1
  97   46  121 1
  98   47   48 ar
  99   47  122 1
 100   48   49 ar
 101   48  123 1
 102   49   50 ar
 103   49  124 1
 104   50  125 1
 105   51   69 am
 106   51  126 1
 107   52   53 1
 108   52  127 1
 109   52  128 1
 110   53   54 ar
 111   53   58 ar
 112   54   55 ar
 113   54  129 1
 114   55   56 ar
 115   55   75 1
 116   56   57 ar
 117   56  130 1
 118   57   58 ar
 119   57   76 1
 120   58  131 1
 121   59   60 2
 122   59   67 am
 123   61   62 1
 124   61  132 1
 125   61  133 1
 126   62   63 1
 127   62  134 1
 128   62  135 1
 129   63   64 1
 130   63  136 1
 131   64   65 1
 132   64   66 2
 133   65  137 1
 134   65  138 1
 135   66  139 1
 136   67   68 1
 137   67  140 1
 138   68   69 1
 139   68   71 1
 140   68  141 1
 141   69   70 2
 142   71   72 1
 143   71  142 1
 144   71  143 1
 145   72   73 2
 146   72   74 am
 147   74  144 1
 148   74  145 1

#	End of record

