#	Name: ASD01410769
#	Creating user name:	WinNT
#	Creation time:	15. 06. 2019 19:18

#	Modifying user name:	WinNT
#	Modification time:	15. 06. 2019 19:18

#	Program:	/corina/corina34_cracker 3.40 0067  02.08.2006

@<TRIPOS>MOLECULE
ASD01410769
  98  104    0    0    0
SMALL
NO_CHARGES


@<TRIPOS>ATOM
   1 C1             1.5967     2.4808     2.7435 C.3     
   2 C2             0.8794    -0.5821     3.9493 C.3     
   3 C3             2.0778     0.0550     3.2120 C.3     
   4 N4             2.8508     0.6902     4.2898 N.am    
   5 C5             2.8039    -0.2390     5.4307 C.3     
   6 C6             1.5191    -1.0770     5.2698 C.3     
   7 O7            -0.1320     0.3931     4.2102 O.3     
   8 C8             4.0122    -1.1394     5.4120 C.2     
   9 O9             4.8405    -1.0246     4.5335 O.2     
  10 N10            4.1724    -2.0723     6.3714 N.am    
  11 C11            5.2804    -3.0270     6.2872 C.3     
  12 C12            5.2227    -3.9891     5.1288 C.2     
  13 N13            4.1414    -4.0116     4.3247 N.am    
  14 O14            6.1494    -4.7432     4.9201 O.2     
  15 S15            4.1280    -4.9809     2.9820 S.o2    
  16 C16            4.1916    -6.6694     3.6420 C.3     
  17 C17            6.6613    -2.5483     6.7399 C.3     
  18 C18            5.8736    -3.5385     7.6015 C.3     
  19 C19            4.3111    -7.8167     2.6368 C.3     
  20 C20            5.5108    -7.4321     3.5050 C.3     
  21 O21            2.8659    -4.7281     2.3799 O.2     
  22 O22            5.3380    -4.6629     2.3082 O.2     
  23 C23            7.8779    -3.0835     5.9822 C.3     
  24 C24            9.1435    -2.3967     6.4995 C.3     
  25 C25           -1.3920    -0.0656     4.4128 C.ar    
  26 C26           -2.4610     0.8295     4.6514 C.ar    
  27 C27           -1.6644    -1.4083     4.3863 C.ar    
  28 C28           -2.9751    -1.8569     4.5988 C.ar    
  29 N29           -3.9666    -1.0121     4.8261 N.ar    
  30 C30           -3.7622     0.3086     4.8583 C.ar    
  31 C31           -3.2555    -3.3077     4.5676 C.2     
  32 C32           -4.8246     1.1966     5.1015 C.ar    
  33 C33           -4.5848     2.5524     5.1294 C.ar    
  34 C34           -3.2976     3.0547     4.9184 C.ar    
  35 C35           -2.2513     2.2156     4.6860 C.ar    
  36 Cl36          -6.4290     0.5879     5.3643 Cl      
  37 O37           -5.6110     3.4114     5.3643 O.3     
  38 N38           -4.4232    -3.8558     4.7484 N.2     
  39 C39            1.6075     1.0616     2.1782 C.3     
  40 C40            3.0229     2.8601     3.1681 C.3     
  41 C41            3.4365     1.8995     4.2631 C.2     
  42 C42            3.0439     4.2950     3.6989 C.3     
  43 C43            2.7572     5.2670     2.5526 C.3     
  44 C44            1.9747     4.4538     4.7817 C.3     
  45 O45            4.2684     2.2112     5.0888 O.2     
  46 C46           -5.2989     4.8058     5.3810 C.3     
  47 C47           -4.4849    -5.1639     4.6856 C.2     
  48 C48           -3.3276    -5.7917     4.4401 C.2     
  49 S49           -2.0655    -4.5728     4.2723 S.3     
  50 C50           -5.7775    -5.9144     4.8782 C.3     
  51 C51           -6.4107    -6.1978     3.5145 C.3     
  52 C52           -5.4975    -7.2366     5.5952 C.3     
  53 H53            1.2467     3.1751     1.9796 H       
  54 H54            0.9349     2.5239     3.6085 H       
  55 H55            0.4722    -1.4158     3.3772 H       
  56 H56            2.6756    -0.7221     2.7356 H       
  57 H57            2.7697     0.3201     6.3657 H       
  58 H58            0.8441    -0.8999     6.1072 H       
  59 H59            1.7646    -2.1366     5.1978 H       
  60 H60            3.5540    -2.1116     7.1177 H       
  61 H61            3.3709    -3.4601     4.5324 H       
  62 H62            3.5986    -6.8460     4.5393 H       
  63 H63            6.7453    -1.5231     7.1004 H       
  64 H64            5.4397    -3.1645     8.5289 H       
  65 H65            6.2225    -4.5708     7.6283 H       
  66 H66            3.7970    -8.7483     2.8731 H       
  67 H67            4.3515    -7.5569     1.5790 H       
  68 H68            6.3405    -6.9194     3.0183 H       
  69 H69            5.7860    -8.1108     4.3124 H       
  70 H70            7.9588    -4.1592     6.1382 H       
  71 H71            7.7623    -2.8783     4.9180 H       
  72 H72           10.0103    -2.7780     5.9596 H       
  73 H73            9.0627    -1.3209     6.3435 H       
  74 H74            9.2592    -2.6018     7.5637 H       
  75 H75           -0.8718    -2.1184     4.2020 H       
  76 H76           -3.1305     4.1214     4.9439 H       
  77 H77           -1.2617     2.6170     4.5248 H       
  78 H78            0.5996     0.7983     1.8573 H       
  79 H79            2.2749     1.0262     1.3171 H       
  80 H80            3.6997     2.7680     2.3187 H       
  81 H81            4.0247     4.5115     4.1222 H       
  82 H82            1.7367     5.1207     2.1988 H       
  83 H83            2.8757     6.2911     2.9065 H       
  84 H84            3.4550     5.0817     1.7360 H       
  85 H85            0.9939     4.2373     4.3585 H       
  86 H86            2.1790     3.7613     5.5983 H       
  87 H87            1.9897     5.4760     5.1599 H       
  88 H88           -6.2050     5.3786     5.5785 H       
  89 H89           -4.5657     5.0047     6.1626 H       
  90 H90           -4.8880     5.0977     4.4145 H       
  91 H91           -3.1921    -6.8597     4.3551 H       
  92 H92           -6.4607    -5.3133     5.4782 H       
  93 H93           -5.7275    -6.7989     2.9146 H       
  94 H94           -7.3456    -6.7406     3.6538 H       
  95 H95           -6.6101    -5.2558     3.0037 H       
  96 H96           -5.0464    -7.0347     6.5668 H       
  97 H97           -6.4324    -7.7795     5.7345 H       
  98 H98           -4.8143    -7.8377     4.9953 H       
@<TRIPOS>BOND
   1    1   39 1
   2    1   40 1
   3    1   53 1
   4    1   54 1
   5    2    3 1
   6    2    7 1
   7    2    6 1
   8    2   55 1
   9    3    4 1
  10    3   39 1
  11    3   56 1
  12    4    5 1
  13    4   41 am
  14    5    6 1
  15    5    8 1
  16    5   57 1
  17    6   58 1
  18    6   59 1
  19    7   25 1
  20    8    9 2
  21    8   10 am
  22   10   11 1
  23   10   60 1
  24   11   12 1
  25   11   17 1
  26   11   18 1
  27   12   13 am
  28   12   14 2
  29   13   15 am
  30   13   61 1
  31   15   16 1
  32   15   21 2
  33   15   22 2
  34   16   19 1
  35   16   20 1
  36   16   62 1
  37   17   18 1
  38   17   23 1
  39   17   63 1
  40   18   64 1
  41   18   65 1
  42   19   20 1
  43   19   66 1
  44   19   67 1
  45   20   68 1
  46   20   69 1
  47   23   24 1
  48   23   70 1
  49   23   71 1
  50   24   72 1
  51   24   73 1
  52   24   74 1
  53   25   26 ar
  54   25   27 ar
  55   26   30 ar
  56   26   35 ar
  57   27   28 ar
  58   27   75 1
  59   28   29 ar
  60   28   31 1
  61   29   30 ar
  62   30   32 ar
  63   31   38 2
  64   31   49 1
  65   32   33 ar
  66   32   36 1
  67   33   34 ar
  68   33   37 1
  69   34   35 ar
  70   34   76 1
  71   35   77 1
  72   37   46 1
  73   38   47 1
  74   39   78 1
  75   39   79 1
  76   40   41 1
  77   40   42 1
  78   40   80 1
  79   41   45 2
  80   42   43 1
  81   42   44 1
  82   42   81 1
  83   43   82 1
  84   43   83 1
  85   43   84 1
  86   44   85 1
  87   44   86 1
  88   44   87 1
  89   46   88 1
  90   46   89 1
  91   46   90 1
  92   47   48 2
  93   47   50 1
  94   48   49 1
  95   48   91 1
  96   50   51 1
  97   50   52 1
  98   50   92 1
  99   51   93 1
 100   51   94 1
 101   51   95 1
 102   52   96 1
 103   52   97 1
 104   52   98 1

#	End of record

