#	Name: ASD05790028
#	Creating user name:	WinNT
#	Creation time:	15. 06. 2019 21:03

#	Modifying user name:	WinNT
#	Modification time:	15. 06. 2019 21:03

#	Program:	/corina/corina34_cracker 3.40 0067  02.08.2006

@<TRIPOS>MOLECULE
ASD05790028
  46   49    0    0    0
SMALL
NO_CHARGES


@<TRIPOS>ATOM
   1 C1            -0.1753     1.4752    -0.5693 C.2     
   2 C2            -0.1532    -0.0033    -0.5732 C.ar    
   3 C3             0.8996    -0.6842    -1.1881 C.ar    
   4 C4             0.9206    -2.0612    -1.1914 C.ar    
   5 C5            -0.1112    -2.7768    -0.5796 C.ar    
   6 C6            -1.1642    -2.0956     0.0355 C.ar    
   7 C7            -1.1821    -0.7185     0.0432 C.ar    
   8 O8             0.7228     2.0979    -1.1015 O.2     
   9 N9            -1.1942     2.1324     0.0193 N.am    
  10 C10           -1.1620     3.5246     0.1191 C.ar    
  11 C11           -2.3412     4.2549     0.0191 C.ar    
  12 C12           -2.3128     5.6287     0.1171 C.ar    
  13 C13           -1.0979     6.2880     0.3173 C.ar    
  14 C14            0.0846     5.5517     0.4174 C.ar    
  15 C15            0.0486     4.1777     0.3241 C.ar    
  16 O16           -2.1301     8.5760     0.3426 O.3     
  17 C17           -1.0638     7.7612     0.4224 C.2     
  18 N18            0.0116     8.4880     0.6094 N.2     
  19 C19           -0.3497     9.7874     0.6527 C.2     
  20 C20           -1.6951     9.8431     0.4851 C.2     
  21 C21           -2.5433    11.0885     0.4621 C.3     
  22 F22           -2.6395    11.5631    -0.8504 F       
  23 F23           -3.8221    10.7907     0.9452 F       
  24 F24           -1.9559    12.0678     1.2703 F       
  25 C25            0.5586    10.9445     0.8479 C.ar    
  26 C26            1.6705    10.8281     1.6797 C.ar    
  27 C27            2.5119    11.9075     1.8577 C.ar    
  28 C28            2.2531    13.1033     1.2122 C.ar    
  29 C29            1.1508    13.2244     0.3854 C.ar    
  30 C30            0.3059    12.1497     0.1957 C.ar    
  31 C31           -0.0898    -4.2086    -0.5833 C.1     
  32 N32           -0.0728    -5.3445    -0.5862 N.1     
  33 H33            1.6972    -0.1309    -1.6615 H       
  34 H34            1.7346    -2.5877    -1.6673 H       
  35 H35           -1.9621    -2.6487     0.5086 H       
  36 H36           -1.9941    -0.1917     0.5223 H       
  37 H37           -1.9499     1.6381     0.3736 H       
  38 H38           -3.2802     3.7445    -0.1361 H       
  39 H39           -3.2289     6.1953     0.0390 H       
  40 H40            1.0256     6.0586     0.5722 H       
  41 H41            0.9621     3.6074     0.4058 H       
  42 H42            1.8733     9.8951     2.1844 H       
  43 H43            3.3738    11.8185     2.5024 H       
  44 H44            2.9140    13.9455     1.3546 H       
  45 H45            0.9533    14.1604    -0.1158 H       
  46 H46           -0.5518    12.2439    -0.4539 H       
@<TRIPOS>BOND
   1    1    2 1
   2    1    8 2
   3    1    9 am
   4    2    3 ar
   5    2    7 ar
   6    3    4 ar
   7    3   33 1
   8    4    5 ar
   9    4   34 1
  10    5    6 ar
  11    5   31 1
  12    6    7 ar
  13    6   35 1
  14    7   36 1
  15    9   10 1
  16    9   37 1
  17   10   11 ar
  18   10   15 ar
  19   11   12 ar
  20   11   38 1
  21   12   13 ar
  22   12   39 1
  23   13   14 ar
  24   13   17 1
  25   14   15 ar
  26   14   40 1
  27   15   41 1
  28   16   17 1
  29   16   20 1
  30   17   18 2
  31   18   19 1
  32   19   20 2
  33   19   25 1
  34   20   21 1
  35   21   22 1
  36   21   23 1
  37   21   24 1
  38   25   26 ar
  39   25   30 ar
  40   26   27 ar
  41   26   42 1
  42   27   28 ar
  43   27   43 1
  44   28   29 ar
  45   28   44 1
  46   29   30 ar
  47   29   45 1
  48   30   46 1
  49   31   32 3

#	End of record

