#	Name: ASD01901260
#	Creating user name:	WinNT
#	Creation time:	15. 06. 2019 19:53

#	Modifying user name:	WinNT
#	Modification time:	15. 06. 2019 19:53

#	Program:	/corina/corina34_cracker 3.40 0067  02.08.2006

@<TRIPOS>MOLECULE
ASD01901260
  38   41    0    0    0
SMALL
NO_CHARGES


@<TRIPOS>ATOM
   1 C1            -0.0166     1.3750     0.0096 C.ar    
   2 C2             0.0021    -0.0041     0.0020 C.ar    
   3 C3             1.2078    -0.6830    -0.0131 C.ar    
   4 C4             2.4027     0.0149    -0.0208 C.ar    
   5 C5             2.3997     1.3941    -0.0129 C.ar    
   6 C6             1.1860     2.0866     0.0019 C.ar    
   7 C7             1.1748     3.5185     0.0093 C.1     
   8 C8             1.1656     4.6925     0.0153 C.1     
   9 C9             1.1543     6.1244     0.0226 C.ar    
  10 C10           -0.0678     8.1952     0.0508 C.ar    
  11 C11           -0.0607     6.8154     0.0433 C.ar    
  12 C12            2.3584     6.8345     0.0149 C.ar    
  13 C13            2.3438     8.2143     0.0225 C.ar    
  14 C14            1.1325     8.8988     0.0377 C.ar    
  15 F15           -1.2416     8.8638     0.0703 F       
  16 N16            1.1215    10.3005     0.0449 N.am    
  17 C17            1.1325    10.9533     1.2213 C.2     
  18 C18            1.0984    13.0858    -0.0283 C.2     
  19 N19            1.0945    12.3019    -1.1889 N.am    
  20 C20            1.1057    10.9632    -1.1214 C.2     
  21 O21            1.1018    10.3254    -2.1564 O.2     
  22 O22            1.1522    10.3365     2.2691 O.2     
  23 F23            3.5070     8.9014     0.0155 F       
  24 C24            1.0709    12.9562    -2.4995 C.3     
  25 S25            1.1097    14.7359     1.7439 S.3     
  26 N26            1.0894    14.3958     0.0878 N.2     
  27 C27            1.1207    12.4395     1.2213 C.2     
  28 N28            1.1284    13.2628     2.2524 N.2     
  29 H29           -0.9584     1.9035     0.0169 H       
  30 H30           -0.9266    -0.5554     0.0083 H       
  31 H31            1.2163    -1.7630    -0.0187 H       
  32 H32            3.3399    -0.5217    -0.0326 H       
  33 H33            3.3331     1.9374    -0.0182 H       
  34 H34           -0.9928     6.2699     0.0530 H       
  35 H35            3.2989     6.3038     0.0034 H       
  36 H36            2.0926    13.1314    -2.8366 H       
  37 H37            0.5565    12.3159    -3.2161 H       
  38 H38            0.5460    13.9083    -2.4208 H       
@<TRIPOS>BOND
   1    1    2 ar
   2    1    6 ar
   3    1   29 1
   4    2    3 ar
   5    2   30 1
   6    3    4 ar
   7    3   31 1
   8    4    5 ar
   9    4   32 1
  10    5    6 ar
  11    5   33 1
  12    6    7 1
  13    7    8 3
  14    8    9 1
  15    9   12 ar
  16    9   11 ar
  17   10   11 ar
  18   10   14 ar
  19   10   15 1
  20   11   34 1
  21   12   13 ar
  22   12   35 1
  23   13   14 ar
  24   13   23 1
  25   14   16 1
  26   16   17 am
  27   16   20 am
  28   17   27 1
  29   17   22 2
  30   18   19 1
  31   18   27 1
  32   18   26 2
  33   19   20 am
  34   19   24 1
  35   20   21 2
  36   24   36 1
  37   24   37 1
  38   24   38 1
  39   25   26 1
  40   25   28 1
  41   27   28 2

#	End of record

