#	Name: ASD01140181
#	Creating user name:	WinNT
#	Creation time:	15. 06. 2019 19:00

#	Modifying user name:	WinNT
#	Modification time:	15. 06. 2019 19:00

#	Program:	/corina/corina34_cracker 3.40 0067  02.08.2006

@<TRIPOS>MOLECULE
ASD01140181
  50   53    0    0    0
SMALL
NO_CHARGES


@<TRIPOS>ATOM
   1 C1             0.0248    -1.1748     0.0050 C.1     
   2 C2             0.0074    -0.0010     0.0099 C.1     
   3 C3            -0.0138     1.4309     0.0158 C.ar    
   4 C4             1.1854     2.1479     0.0082 C.ar    
   5 C5             1.1599     3.5242     0.0023 C.ar    
   6 C6            -0.0508     4.2117     0.0035 C.ar    
   7 C7            -1.2580     3.5087     0.0339 C.ar    
   8 C8            -1.2268     2.1081     0.0232 C.ar    
   9 C9            -2.5691     4.1638     0.1025 C.2     
  10 N10           -2.9640     5.2080    -0.5374 N.2     
  11 C11           -2.0950     5.9014    -1.4952 C.3     
  12 C12           -0.8837     6.3899    -0.7440 C.2     
  13 N13           -0.0125     5.6074    -0.0599 N.pl3   
  14 C14            0.9054     6.4263     0.5219 C.2     
  15 N15            0.6466     7.6572     0.1821 N.2     
  16 C16           -1.0749     8.8658    -1.2189 C.2     
  17 O17           -2.0651     8.7490    -1.9142 O.2     
  18 O18           -0.5429    10.0854    -1.0033 O.3     
  19 C19           -1.2048    11.2140    -1.6329 C.3     
  20 C20           -0.4632    12.5039    -1.2764 C.3     
  21 C21           -1.0841    13.6765    -2.0383 C.3     
  22 C22           -0.5748    12.7571     0.2284 C.3     
  23 C23           -3.5576     3.5486     1.0185 C.ar    
  24 C24           -3.1265     2.7864     2.1041 C.ar    
  25 C25           -4.0520     2.2159     2.9537 C.ar    
  26 C26           -5.4051     2.3987     2.7306 C.ar    
  27 C27           -5.8388     3.1537     1.6555 C.ar    
  28 C28           -4.9229     3.7340     0.8021 C.ar    
  29 C29           -0.4570     7.6758    -0.6126 C.2     
  30 H30            0.0404    -2.2247     0.0007 H       
  31 H31            2.1297     1.6238     0.0074 H       
  32 H32            2.0882     4.0762    -0.0030 H       
  33 H33           -2.1521     1.5510     0.0246 H       
  34 H34           -1.7887     5.2124    -2.2822 H       
  35 H35           -2.6262     6.7480    -1.9303 H       
  36 H36            1.7156     6.1081     1.1612 H       
  37 H37           -1.2013    11.0801    -2.7146 H       
  38 H38           -2.2334    11.2763    -1.2778 H       
  39 H39            0.5871    12.4072    -1.5516 H       
  40 H40           -2.1344    13.7732    -1.7630 H       
  41 H41           -0.5558    14.5954    -1.7843 H       
  42 H42           -1.0046    13.4961    -3.1103 H       
  43 H43           -1.6250    12.8539     0.5036 H       
  44 H44           -0.1324    11.9218     0.7712 H       
  45 H45           -0.0465    13.6761     0.4824 H       
  46 H46           -2.0705     2.6427     2.2791 H       
  47 H47           -3.7195     1.6251     3.7945 H       
  48 H48           -6.1257     1.9498     3.3981 H       
  49 H49           -6.8964     3.2928     1.4864 H       
  50 H50           -5.2626     4.3272    -0.0340 H       
@<TRIPOS>BOND
   1    1    2 3
   2    1   30 1
   3    2    3 1
   4    3    4 ar
   5    3    8 ar
   6    4    5 ar
   7    4   31 1
   8    5    6 ar
   9    5   32 1
  10    6    7 ar
  11    6   13 1
  12    7    8 ar
  13    7    9 1
  14    8   33 1
  15    9   10 2
  16    9   23 1
  17   10   11 1
  18   11   12 1
  19   11   34 1
  20   11   35 1
  21   12   13 1
  22   12   29 2
  23   13   14 1
  24   14   15 2
  25   14   36 1
  26   15   29 1
  27   16   17 2
  28   16   18 1
  29   16   29 1
  30   18   19 1
  31   19   20 1
  32   19   37 1
  33   19   38 1
  34   20   21 1
  35   20   22 1
  36   20   39 1
  37   21   40 1
  38   21   41 1
  39   21   42 1
  40   22   43 1
  41   22   44 1
  42   22   45 1
  43   23   24 ar
  44   23   28 ar
  45   24   25 ar
  46   24   46 1
  47   25   26 ar
  48   25   47 1
  49   26   27 ar
  50   26   48 1
  51   27   28 ar
  52   27   49 1
  53   28   50 1

#	End of record

