#	Name: ASD01884224
#	Creating user name:	WinNT
#	Creation time:	15. 06. 2019 19:47

#	Modifying user name:	WinNT
#	Modification time:	15. 06. 2019 19:47

#	Program:	/corina/corina34_cracker 3.40 0067  02.08.2006

@<TRIPOS>MOLECULE
ASD01884224
  39   42    0    0    0
SMALL
NO_CHARGES


@<TRIPOS>ATOM
   1 C1            -0.0168     1.3910     0.0097 C.ar    
   2 C2             0.0021    -0.0041     0.0020 C.ar    
   3 C3            -1.1687    -0.7209     0.0094 C.ar    
   4 C4            -2.4131    -0.0704     0.0252 C.ar    
   5 C5            -2.4161     1.3263     0.0332 C.ar    
   6 C6            -1.2421     2.0536     0.0308 C.ar    
   7 C7             1.2520     2.1591     0.0017 C.ar    
   8 N8            -3.6713    -0.6451     0.0347 N.am    
   9 C9            -4.7416     0.1549     0.0501 C.2     
  10 S10           -4.1171     1.8126     0.0532 S.3     
  11 O11           -5.9099    -0.1865     0.0596 O.2     
  12 C12           -3.8274    -2.1017     0.0275 C.3     
  13 C13           -3.8669    -2.6175     1.4674 C.3     
  14 C14           -4.1432    -4.1077     1.6766 C.3     
  15 C15           -2.7390    -3.5492     1.9152 C.3     
  16 C16            2.2638     1.8530     0.9165 C.ar    
  17 C17            3.4460     2.5757     0.9020 C.ar    
  18 C18            3.6228     3.5955    -0.0137 C.ar    
  19 C19            2.6230     3.9009    -0.9205 C.ar    
  20 C20            1.4430     3.1849    -0.9211 C.ar    
  21 O21            2.0886     0.8508     1.8168 O.3     
  22 C22            3.1656     0.5948     2.7205 C.3     
  23 H23            0.9478    -0.5255    -0.0102 H       
  24 H24           -1.1323    -1.8003     0.0025 H       
  25 H25           -1.2738     3.1331     0.0371 H       
  26 H26           -4.7563    -2.3651    -0.4784 H       
  27 H27           -2.9865    -2.5546    -0.4978 H       
  28 H28           -4.2690    -1.9227     2.2048 H       
  29 H29           -4.7267    -4.3934     2.5519 H       
  30 H30           -4.2968    -4.7207     0.7884 H       
  31 H31           -1.9687    -3.7946     1.1841 H       
  32 H32           -2.3986    -3.4673     2.9475 H       
  33 H33            4.2299     2.3420     1.6072 H       
  34 H34            4.5453     4.1571    -0.0215 H       
  35 H35            2.7684     4.6992    -1.6331 H       
  36 H36            0.6649     3.4260    -1.6303 H       
  37 H37            3.3637     1.4885     3.3121 H       
  38 H38            2.8959    -0.2274     3.3835 H       
  39 H39            4.0585     0.3278     2.1552 H       
@<TRIPOS>BOND
   1    1    2 ar
   2    1    7 1
   3    1    6 ar
   4    2    3 ar
   5    2   23 1
   6    3    4 ar
   7    3   24 1
   8    4    5 ar
   9    4    8 1
  10    5    6 ar
  11    5   10 1
  12    6   25 1
  13    7   16 ar
  14    7   20 ar
  15    8    9 am
  16    8   12 1
  17    9   10 1
  18    9   11 2
  19   12   13 1
  20   12   26 1
  21   12   27 1
  22   13   14 1
  23   13   15 1
  24   13   28 1
  25   14   15 1
  26   14   29 1
  27   14   30 1
  28   15   31 1
  29   15   32 1
  30   16   17 ar
  31   16   21 1
  32   17   18 ar
  33   17   33 1
  34   18   19 ar
  35   18   34 1
  36   19   20 ar
  37   19   35 1
  38   20   36 1
  39   21   22 1
  40   22   37 1
  41   22   38 1
  42   22   39 1

#	End of record

