#	Name: ASD04590215
#	Creating user name:	WinNT
#	Creation time:	15. 06. 2019 20:50

#	Modifying user name:	WinNT
#	Modification time:	15. 06. 2019 20:50

#	Program:	/corina/corina34_cracker 3.40 0067  02.08.2006

@<TRIPOS>MOLECULE
ASD04590215
  43   45    0    0    0
SMALL
NO_CHARGES


@<TRIPOS>ATOM
   1 N1            -0.0153     1.2802     0.0091 N.pl3   
   2 N2             0.0021    -0.0041     0.0020 N.2     
   3 C3             1.2455    -0.4440    -0.0122 C.2     
   4 C4             2.0903     0.6961    -0.0142 C.2     
   5 C5             1.2523     1.7667    -0.0004 C.2     
   6 C6             1.6765    -1.8547    -0.0235 C.2     
   7 N7             0.7571    -2.8402    -0.0200 N.am    
   8 N8             3.4930     0.7146    -0.0270 N.am    
   9 O9             2.8611    -2.1284    -0.0359 O.2     
  10 C10            4.1514     1.8906    -0.0271 C.2     
  11 C11            5.6264     1.9101    -0.0406 C.ar    
  12 O12            3.5296     2.9356    -0.0159 O.2     
  13 C13            1.1851    -4.2412    -0.0312 C.3     
  14 C14            0.4448    -6.1491     1.4100 C.ar    
  15 C15            0.1059    -5.1010     0.5748 C.ar    
  16 C16            6.3411     1.9132     1.1622 C.ar    
  17 C17            7.7230     1.9310     1.1402 C.ar    
  18 C18            8.3993     1.9458    -0.0661 C.ar    
  19 C19            7.7008     1.9434    -1.2598 C.ar    
  20 C20            6.3188     1.9198    -1.2564 C.ar    
  21 F21            5.6824     1.8992     2.3416 F       
  22 F22            5.6383     1.9169    -2.4235 F       
  23 C23            1.4410    -4.6848    -1.4730 C.3     
  24 C24           -0.5451    -6.9377     1.9659 C.ar    
  25 C25           -1.8738    -6.6782     1.6867 C.ar    
  26 C26           -2.2127    -5.6298     0.8519 C.ar    
  27 C27           -1.2228    -4.8412     0.2960 C.ar    
  28 H28           -0.8184     1.8242     0.0160 H       
  29 H29            1.5405     2.8076     0.0019 H       
  30 H30           -0.1879    -2.6218    -0.0102 H       
  31 H31            3.9890    -0.1189    -0.0359 H       
  32 H32            2.1017    -4.3458     0.5492 H       
  33 H33            1.4831    -6.3546     1.6246 H       
  34 H34            8.2762     1.9338     2.0677 H       
  35 H35            9.4791     1.9597    -0.0760 H       
  36 H36            8.2367     1.9557    -2.1974 H       
  37 H37            0.5244    -4.5803    -2.0534 H       
  38 H38            2.2215    -4.0630    -1.9113 H       
  39 H39            1.7594    -5.7272    -1.4813 H       
  40 H40           -0.2803    -7.7568     2.6181 H       
  41 H41           -2.6472    -7.2948     2.1205 H       
  42 H42           -3.2509    -5.4271     0.6338 H       
  43 H43           -1.4876    -4.0223    -0.3565 H       
@<TRIPOS>BOND
   1    1    2 1
   2    1    5 1
   3    1   28 1
   4    2    3 2
   5    3    4 1
   6    3    6 1
   7    4    5 2
   8    4    8 1
   9    5   29 1
  10    6    7 am
  11    6    9 2
  12    7   13 1
  13    7   30 1
  14    8   10 am
  15    8   31 1
  16   10   11 1
  17   10   12 2
  18   11   16 ar
  19   11   20 ar
  20   13   23 1
  21   13   15 1
  22   13   32 1
  23   14   15 ar
  24   14   24 ar
  25   14   33 1
  26   15   27 ar
  27   16   17 ar
  28   16   21 1
  29   17   18 ar
  30   17   34 1
  31   18   19 ar
  32   18   35 1
  33   19   20 ar
  34   19   36 1
  35   20   22 1
  36   23   37 1
  37   23   38 1
  38   23   39 1
  39   24   25 ar
  40   24   40 1
  41   25   26 ar
  42   25   41 1
  43   26   27 ar
  44   26   42 1
  45   27   43 1

#	End of record

