#	Name: ASD01120341
#	Creating user name:	WinNT
#	Creation time:	15. 06. 2019 18:59

#	Modifying user name:	WinNT
#	Modification time:	15. 06. 2019 18:59

#	Program:	/corina/corina34_cracker 3.40 0067  02.08.2006

@<TRIPOS>MOLECULE
ASD01120341
  39   40    0    0    0
SMALL
NO_CHARGES


@<TRIPOS>ATOM
   1 C1            -0.0187     1.5258     0.0104 C.3     
   2 C2             0.0021    -0.0041     0.0020 C.3     
   3 O3            -1.3601    -0.5067     0.0123 O.3     
   4 C4            -1.5187    -1.8457     0.0066 C.2     
   5 O5            -0.5446    -2.5731    -0.0066 O.2     
   6 C6            -2.8683    -2.4256     0.0164 C.2     
   7 C7            -3.1554    -3.7545     0.0125 C.2     
   8 C8            -4.5642    -3.8909     0.0259 C.ar    
   9 C9            -5.1033    -2.5895     0.0379 C.ar    
  10 N10           -4.0488    -1.7076     0.0371 N.pl3   
  11 C11           -6.4854    -2.4217     0.0526 C.ar    
  12 C12           -7.3088    -3.5249     0.0552 C.ar    
  13 C13           -6.7747    -4.8076     0.0433 C.ar    
  14 C14           -5.4237    -4.9976     0.0284 C.ar    
  15 C15           -7.6962    -6.0000     0.0464 C.3     
  16 C16           -8.0224    -6.3962    -1.3949 C.3     
  17 C17           -8.8554    -7.6796    -1.3950 C.3     
  18 C18           -8.8161    -5.2730    -2.0654 C.3     
  19 N19           -7.0677    -1.0609     0.0659 N.pl3   
  20 O20           -8.2770    -0.9160     0.0787 O.2     
  21 O21           -6.3376    -0.0860     0.0640 O.2     
  22 H22            1.0039     1.9031     0.0027 H       
  23 H23           -0.5459     1.8868    -0.8726 H       
  24 H24           -0.5289     1.8773     0.9072 H       
  25 H25            0.5123    -0.3556    -0.8948 H       
  26 H26            0.5293    -0.3651     0.8851 H       
  27 H27           -2.4374    -4.5612     0.0009 H       
  28 H28           -4.1215    -0.7403     0.0440 H       
  29 H29           -8.3806    -3.3922     0.0669 H       
  30 H30           -5.0178    -5.9983     0.0194 H       
  31 H31           -7.2090    -6.8343     0.5511 H       
  32 H32           -8.6173    -5.7459     0.5708 H       
  33 H33           -7.0960    -6.5643    -1.9441 H       
  34 H34           -9.7818    -7.5115    -0.8458 H       
  35 H35           -9.0878    -7.9618    -2.4219 H       
  36 H36           -8.2899    -8.4797    -0.9174 H       
  37 H37           -9.0486    -5.5552    -3.0922 H       
  38 H38           -9.7425    -5.1049    -1.5162 H       
  39 H39           -8.2227    -4.3587    -2.0653 H       
@<TRIPOS>BOND
   1    1    2 1
   2    1   22 1
   3    1   23 1
   4    1   24 1
   5    2    3 1
   6    2   25 1
   7    2   26 1
   8    3    4 1
   9    4    5 2
  10    4    6 1
  11    6    7 2
  12    6   10 1
  13    7    8 1
  14    7   27 1
  15    8    9 ar
  16    8   14 ar
  17    9   10 1
  18    9   11 ar
  19   10   28 1
  20   11   12 ar
  21   11   19 1
  22   12   13 ar
  23   12   29 1
  24   13   14 ar
  25   13   15 1
  26   14   30 1
  27   15   16 1
  28   15   31 1
  29   15   32 1
  30   16   17 1
  31   16   18 1
  32   16   33 1
  33   17   34 1
  34   17   35 1
  35   17   36 1
  36   18   37 1
  37   18   38 1
  38   18   39 1
  39   19   20 2
  40   19   21 2

#	End of record

