#	Name: ASD01001276
#	Creating user name:	WinNT
#	Creation time:	15. 06. 2019 18:55

#	Modifying user name:	WinNT
#	Modification time:	15. 06. 2019 18:55

#	Program:	/corina/corina34_cracker 3.40 0067  02.08.2006

@<TRIPOS>MOLECULE
ASD01001276
  26   27    0    0    0
SMALL
NO_CHARGES


@<TRIPOS>ATOM
   1 C1            -0.0167     1.3811     0.0096 C.ar    
   2 C2             0.0021    -0.0041     0.0020 C.ar    
   3 C3            -1.1834    -0.7167     0.0091 C.ar    
   4 C4            -2.3921    -0.0512     0.0242 C.ar    
   5 C5            -2.4185     1.3428     0.0324 C.ar    
   6 C6            -1.2223     2.0575     0.0305 C.ar    
   7 C7            -3.7150     2.0623     0.0482 C.ar    
   8 C8            -3.7379     3.4571     0.0563 C.ar    
   9 C9            -4.9407     4.1263     0.0710 C.ar    
  10 C10           -6.1394     3.4077     0.0772 C.ar    
  11 C11           -6.1150     2.0103     0.0685 C.ar    
  12 C12           -4.9107     1.3437     0.0490 C.ar    
  13 F13            1.1444     2.0717     0.0023 F       
  14 C14            1.3187    -0.7371    -0.0145 C.3     
  15 F15            1.0845    -2.1163    -0.0197 F       
  16 F16            2.0360    -0.3815    -1.1618 F       
  17 F17            2.0578    -0.3938     1.1226 F       
  18 C18           -7.3914     4.1025     0.0929 C.1     
  19 N19           -8.3847     4.6537     0.1054 N.1     
  20 H20           -1.1629    -1.7965     0.0023 H       
  21 H21           -3.3166    -0.6095     0.0293 H       
  22 H22           -1.2369     3.1374     0.0369 H       
  23 H23           -2.8114     4.0122     0.0515 H       
  24 H24           -4.9581     5.2061     0.0780 H       
  25 H25           -7.0405     1.4538     0.0734 H       
  26 H26           -4.8916     0.2639     0.0419 H       
@<TRIPOS>BOND
   1    1    2 ar
   2    1   13 1
   3    1    6 ar
   4    2    3 ar
   5    2   14 1
   6    3    4 ar
   7    3   20 1
   8    4    5 ar
   9    4   21 1
  10    5    6 ar
  11    5    7 1
  12    6   22 1
  13    7    8 ar
  14    7   12 ar
  15    8    9 ar
  16    8   23 1
  17    9   10 ar
  18    9   24 1
  19   10   11 ar
  20   10   18 1
  21   11   12 ar
  22   11   25 1
  23   12   26 1
  24   14   15 1
  25   14   16 1
  26   14   17 1
  27   18   19 3

#	End of record

