#	Name: ASD01816000
#	Creating user name:	WinNT
#	Creation time:	15. 06. 2019 19:34

#	Modifying user name:	WinNT
#	Modification time:	15. 06. 2019 19:34

#	Program:	/corina/corina34_cracker 3.40 0067  02.08.2006

@<TRIPOS>MOLECULE
ASD01816000
  41   45    0    0    0
SMALL
NO_CHARGES


@<TRIPOS>ATOM
   1 C1             0.3077     1.3829    -1.5316 C.ar    
   2 C2             0.3228    -0.0025    -1.5206 C.ar    
   3 C3             1.4123    -0.6898    -1.0267 C.ar    
   4 C4             2.5095     0.0065    -0.5329 C.ar    
   5 C5             2.4912     1.4110    -0.5453 C.ar    
   6 C6             1.3870     2.0927    -1.0464 C.ar    
   7 N7             3.6066    -0.6779    -0.0345 N.pl3   
   8 C8             4.6944    -0.0576     0.4558 C.2     
   9 C9             4.7887     1.3113     0.4938 C.2     
  10 C10            3.6659     2.1304    -0.0167 C.2     
  11 C11            5.7891     2.2747     0.9435 C.2     
  12 N12            5.2683     3.4975     0.7037 N.am    
  13 N13            3.9997     3.3806     0.1302 N.2     
  14 C14            5.9086     4.7100     0.9896 C.ar    
  15 O15            6.8768     2.0253     1.4371 O.2     
  16 C16            3.5812    -2.0767    -0.0413 C.ar    
  17 C17            6.8029     5.2564     0.0789 C.ar    
  18 C18            7.4328     6.4522     0.3635 C.ar    
  19 C19            7.1747     7.1062     1.5545 C.ar    
  20 C20            6.2854     6.5661     2.4650 C.ar    
  21 C21            5.6458     5.3724     2.1839 C.ar    
  22 F22            4.7767     4.8445     3.0734 F       
  23 C23            4.0665    -2.7758    -1.1383 C.ar    
  24 C24            3.0754    -2.7689     1.0521 C.ar    
  25 C25            3.0516    -4.1495     1.0438 C.ar    
  26 C26            3.5308    -4.8448    -0.0512 C.ar    
  27 C27            4.0402    -4.1590    -1.1413 C.ar    
  28 F28            4.5077    -4.8409    -2.2098 F       
  29 H29           -0.5496     1.9088    -1.9251 H       
  30 H30           -0.5266    -0.5496    -1.9021 H       
  31 H31            1.4126    -1.7698    -1.0234 H       
  32 H32            1.3745     3.1726    -1.0557 H       
  33 H33            5.5150    -0.6519     0.8296 H       
  34 H34            7.0061     4.7466    -0.8513 H       
  35 H35            8.1284     6.8771    -0.3450 H       
  36 H36            7.6693     8.0408     1.7740 H       
  37 H37            6.0863     7.0791     3.3943 H       
  38 H38            4.4637    -2.2406    -1.9881 H       
  39 H39            2.7014    -2.2273     1.9084 H       
  40 H40            2.6584    -4.6872     1.8940 H       
  41 H41            3.5112    -5.9246    -0.0548 H       
@<TRIPOS>BOND
   1    1    2 ar
   2    1    6 ar
   3    1   29 1
   4    2    3 ar
   5    2   30 1
   6    3    4 ar
   7    3   31 1
   8    4    5 ar
   9    4    7 1
  10    5    6 ar
  11    5   10 1
  12    6   32 1
  13    7    8 1
  14    7   16 1
  15    8    9 2
  16    8   33 1
  17    9   10 1
  18    9   11 1
  19   10   13 2
  20   11   12 am
  21   11   15 2
  22   12   13 1
  23   12   14 1
  24   14   17 ar
  25   14   21 ar
  26   16   23 ar
  27   16   24 ar
  28   17   18 ar
  29   17   34 1
  30   18   19 ar
  31   18   35 1
  32   19   20 ar
  33   19   36 1
  34   20   21 ar
  35   20   37 1
  36   21   22 1
  37   23   27 ar
  38   23   38 1
  39   24   25 ar
  40   24   39 1
  41   25   26 ar
  42   25   40 1
  43   26   27 ar
  44   26   41 1
  45   27   28 1

#	End of record

