#	Name: ASD01410179
#	Creating user name:	WinNT
#	Creation time:	15. 06. 2019 19:16

#	Modifying user name:	WinNT
#	Modification time:	15. 06. 2019 19:16

#	Program:	/corina/corina34_cracker 3.40 0067  02.08.2006

@<TRIPOS>MOLECULE
ASD01410179
  51   53    0    0    0
SMALL
NO_CHARGES


@<TRIPOS>ATOM
   1 C1             0.8388     2.6178     2.2236 C.ar    
   2 C2             1.3019     1.9031     3.3195 C.ar    
   3 C3             2.4891     1.2049     3.2182 C.ar    
   4 N4             3.1835     1.2109     2.0965 N.ar    
   5 C5             2.7749     1.8799     1.0308 C.ar    
   6 C6             1.5900     2.6039     1.0611 C.ar    
   7 O7             3.5205     1.8586    -0.1025 O.3     
   8 C8             4.7211     1.2215    -0.0648 C.ar    
   9 C9             4.7679    -0.1596     0.0834 C.ar    
  10 C10            5.9810    -0.8163     0.1224 C.ar    
  11 C11            7.1652    -0.1000     0.0136 C.ar    
  12 C12            7.1247     1.2948    -0.1363 C.ar    
  13 C13            5.8914     1.9495    -0.1799 C.ar    
  14 N14            8.3895    -0.7634     0.0535 N.am    
  15 C15            8.9513    -1.2102    -1.0872 C.2     
  16 C16            9.0663    -0.9753     1.3353 C.3     
  17 O17           10.0653    -1.6954    -1.0664 O.2     
  18 C18            8.2112    -1.1100    -2.3658 C.ar    
  19 C19            8.6883    -2.3500     1.8905 C.3     
  20 O20            9.1921    -3.3686     1.0240 O.3     
  21 C21            8.8922    -4.6980     1.4539 C.3     
  22 C22            8.7450    -1.6805    -3.5193 C.ar    
  23 C23            8.0412    -1.5788    -4.7086 C.ar    
  24 C24            6.8265    -0.9093    -4.7032 C.ar    
  25 C25            6.3555    -0.3655    -3.5171 C.ar    
  26 N26            7.0419    -0.4818    -2.4019 N.ar    
  27 Br27           5.8228    -0.7390    -6.2968 Br      
  28 C28            8.3764     2.0642    -0.2526 C.2     
  29 O29            9.4473     1.4910    -0.2189 O.2     
  30 O30            8.3333     3.4034    -0.3964 O.3     
  31 C31            1.1283     3.3641    -0.1555 C.3     
  32 F32           -0.0823     4.0058     0.1273 F       
  33 F33            2.0914     4.3175    -0.5029 F       
  34 F34            0.9472     2.4748    -1.2201 F       
  35 H35           -0.0887     3.1686     2.2753 H       
  36 H36            0.7401     1.8935     4.2418 H       
  37 H37            2.8538     0.6472     4.0681 H       
  38 H38            3.8498    -0.7219     0.1689 H       
  39 H39            6.0093    -1.8897     0.2382 H       
  40 H40            5.8521     3.0226    -0.2950 H       
  41 H41           10.1453    -0.9268     1.1889 H       
  42 H42            8.7602    -0.2022     2.0401 H       
  43 H43            9.1200    -2.4719     2.8840 H       
  44 H44            7.6031    -2.4306     1.9535 H       
  45 H45            7.8112    -4.8273     1.5078 H       
  46 H46            9.3085    -5.4122     0.7435 H       
  47 H47            9.3281    -4.8686     2.4383 H       
  48 H48            9.6943    -2.1946    -3.4870 H       
  49 H49            8.4297    -2.0107    -5.6190 H       
  50 H50            5.4102     0.1569    -3.5088 H       
  51 H51            9.1801     3.8647    -0.4687 H       
@<TRIPOS>BOND
   1    1    2 ar
   2    1    6 ar
   3    1   35 1
   4    2    3 ar
   5    2   36 1
   6    3    4 ar
   7    3   37 1
   8    4    5 ar
   9    5    6 ar
  10    5    7 1
  11    6   31 1
  12    7    8 1
  13    8    9 ar
  14    8   13 ar
  15    9   10 ar
  16    9   38 1
  17   10   11 ar
  18   10   39 1
  19   11   12 ar
  20   11   14 1
  21   12   13 ar
  22   12   28 1
  23   13   40 1
  24   14   15 am
  25   14   16 1
  26   15   17 2
  27   15   18 1
  28   16   19 1
  29   16   41 1
  30   16   42 1
  31   18   22 ar
  32   18   26 ar
  33   19   20 1
  34   19   43 1
  35   19   44 1
  36   20   21 1
  37   21   45 1
  38   21   46 1
  39   21   47 1
  40   22   23 ar
  41   22   48 1
  42   23   24 ar
  43   23   49 1
  44   24   25 ar
  45   24   27 1
  46   25   26 ar
  47   25   50 1
  48   28   29 2
  49   28   30 1
  50   30   51 1
  51   31   32 1
  52   31   33 1
  53   31   34 1

#	End of record

