#	Name: ASD03240634
#	Creating user name:	WinNT
#	Creation time:	15. 06. 2019 20:35

#	Modifying user name:	WinNT
#	Modification time:	15. 06. 2019 20:35

#	Program:	/corina/corina34_cracker 3.40 0067  02.08.2006

@<TRIPOS>MOLECULE
ASD03240634
  73   79    0    0    0
SMALL
NO_CHARGES


@<TRIPOS>ATOM
   1 C1             0.0865     1.0812    -0.5240 C.ar    
   2 C2             0.1857    -0.2885    -0.3919 C.ar    
   3 N3             1.3499    -0.8669    -0.1651 N.ar    
   4 C4             2.4704    -0.1664    -0.0535 C.ar    
   5 C5             2.4461     1.2201    -0.1903 C.ar    
   6 C6             1.2340     1.8569    -0.4230 C.ar    
   7 N7             3.6615    -0.8325     0.2216 N.pl3   
   8 C8             4.3558    -0.5868     1.4031 C.ar    
   9 C9             4.8666     0.6867     1.6759 C.ar    
  10 C10            4.6989     1.7811     0.6947 C.2     
  11 N11            3.6198     1.9836    -0.1157 N.pl3   
  12 C12            4.5425    -1.6111     2.3217 C.ar    
  13 C13            5.2196    -1.3676     3.5014 C.ar    
  14 C14            5.7153    -0.1051     3.7777 C.ar    
  15 C15            5.5428     0.9228     2.8727 C.ar    
  16 N16            5.5881     2.7267     0.4662 N.2     
  17 C17            5.1324     3.5573    -0.4841 C.2     
  18 C18            3.8830     3.1077    -0.8737 C.2     
  19 C19            3.0061     3.7095    -1.8964 C.ar    
  20 C20            2.8091     5.0924    -1.9264 C.ar    
  21 C21            2.3733     2.8998    -2.8430 C.ar    
  22 C22            1.5550     3.4694    -3.7960 C.ar    
  23 C23            1.3600     4.8393    -3.8161 C.ar    
  24 C24            1.9881     5.6480    -2.8852 C.ar    
  25 C25            5.8399     4.7431    -1.0201 C.ar    
  26 C26            0.4648     5.4540    -4.8609 C.3     
  27 C27            6.6409     5.5177    -0.1805 C.ar    
  28 N28           -0.4449     4.4793    -5.4777 N.3     
  29 C29           -0.2362     6.7400    -4.3922 C.3     
  30 C30            0.0303     7.3040    -5.7978 C.3     
  31 C31            1.2161     6.3282    -5.8788 C.3     
  32 C32            7.2981     6.6207    -0.6821 C.ar    
  33 C33            7.1635     6.9614    -2.0228 C.ar    
  34 C34            6.3659     6.1918    -2.8614 C.ar    
  35 C35            5.7112     5.0842    -2.3668 C.ar    
  36 N36            7.8316     8.0812    -2.5289 N.am    
  37 C37            9.0576     8.3996    -2.0685 C.2     
  38 C38            9.8212     9.5425    -2.6863 C.3     
  39 O39            9.5464     7.7662    -1.1569 O.2     
  40 C40            9.0195    10.8361    -2.5280 C.3     
  41 C41           11.1728     9.6912    -1.9849 C.3     
  42 H42           -0.8716     1.5444    -0.7082 H       
  43 H43           -0.7030    -0.8966    -0.4751 H       
  44 H44            1.1850     2.9311    -0.5235 H       
  45 H45            4.0110    -1.4745    -0.4160 H       
  46 H46            4.1579    -2.5987     2.1142 H       
  47 H47            5.3626    -2.1676     4.2127 H       
  48 H48            6.2386     0.0765     4.7049 H       
  49 H49            5.9307     1.9069     3.0905 H       
  50 H50            3.2983     5.7247    -1.2003 H       
  51 H51            2.5248     1.8306    -2.8287 H       
  52 H52            1.0655     2.8448    -4.5286 H       
  53 H53            1.8313     6.7164    -2.9068 H       
  54 H54            6.7456     5.2536     0.8614 H       
  55 H55            0.0586     3.6636    -5.7924 H       
  56 H56           -1.1860     4.2240    -4.8424 H       
  57 H57           -1.2945     6.6042    -4.1696 H       
  58 H58            0.2994     7.2660    -3.6019 H       
  59 H59           -0.7633     7.0871    -6.5129 H       
  60 H60            0.3270     8.3528    -5.7985 H       
  61 H61            2.1488     6.7416    -5.4950 H       
  62 H62            1.3302     5.8599    -6.8565 H       
  63 H63            7.9180     7.2209    -0.0326 H       
  64 H64            6.2625     6.4594    -3.9026 H       
  65 H65            5.0915     4.4865    -3.0189 H       
  66 H66            7.4126     8.6286    -3.2113 H       
  67 H67            9.9817     9.3418    -3.7455 H       
  68 H68            9.5718    11.6628    -2.9748 H       
  69 H69            8.0566    10.7302    -3.0277 H       
  70 H70            8.8590    11.0367    -1.4687 H       
  71 H71           11.7439     8.7696    -2.0976 H       
  72 H72           11.7251    10.5179    -2.4317 H       
  73 H73           11.0123     9.8919    -0.9256 H       
@<TRIPOS>BOND
   1    1    2 ar
   2    1    6 ar
   3    1   42 1
   4    2    3 ar
   5    2   43 1
   6    3    4 ar
   7    4    5 ar
   8    4    7 1
   9    5    6 ar
  10    5   11 1
  11    6   44 1
  12    7    8 1
  13    7   45 1
  14    8    9 ar
  15    8   12 ar
  16    9   10 1
  17    9   15 ar
  18   10   11 1
  19   10   16 2
  20   11   18 1
  21   12   13 ar
  22   12   46 1
  23   13   14 ar
  24   13   47 1
  25   14   15 ar
  26   14   48 1
  27   15   49 1
  28   16   17 1
  29   17   18 2
  30   17   25 1
  31   18   19 1
  32   19   20 ar
  33   19   21 ar
  34   20   24 ar
  35   20   50 1
  36   21   22 ar
  37   21   51 1
  38   22   23 ar
  39   22   52 1
  40   23   24 ar
  41   23   26 1
  42   24   53 1
  43   25   27 ar
  44   25   35 ar
  45   26   29 1
  46   26   28 1
  47   26   31 1
  48   27   32 ar
  49   27   54 1
  50   28   55 1
  51   28   56 1
  52   29   30 1
  53   29   57 1
  54   29   58 1
  55   30   31 1
  56   30   59 1
  57   30   60 1
  58   31   61 1
  59   31   62 1
  60   32   33 ar
  61   32   63 1
  62   33   34 ar
  63   33   36 1
  64   34   35 ar
  65   34   64 1
  66   35   65 1
  67   36   37 am
  68   36   66 1
  69   37   38 1
  70   37   39 2
  71   38   40 1
  72   38   41 1
  73   38   67 1
  74   40   68 1
  75   40   69 1
  76   40   70 1
  77   41   71 1
  78   41   72 1
  79   41   73 1

#	End of record

