#	Name: ASD03490059
#	Creating user name:	WinNT
#	Creation time:	15. 06. 2019 20:42

#	Modifying user name:	WinNT
#	Modification time:	15. 06. 2019 20:42

#	Program:	/corina/corina34_cracker 3.40 0067  02.08.2006

@<TRIPOS>MOLECULE
ASD03490059
  69   69    0    0    0
SMALL
NO_CHARGES


@<TRIPOS>ATOM
   1 C1            -0.0187     1.5275     0.0104 C.3     
   2 C2             0.0021    -0.0041     0.0020 C.3     
   3 C3             0.6801    -0.5016     1.2823 C.3     
   4 C4            -0.0626     0.0627     2.4962 C.3     
   5 O5            -0.0716     1.4900     2.4262 O.3     
   6 C6            -0.7344     2.0135     1.2735 C.3     
   7 C7            -0.7067     3.5425     1.3194 C.3     
   8 O8            -1.3695     4.0658     0.1666 O.3     
   9 C9            -1.4208     4.0279     2.5825 C.3     
  10 O10           -0.7580     3.5047     3.7353 O.3     
  11 C11           -1.3931     5.5570     2.6283 C.3     
  12 O12           -2.1713     6.0213     3.7628 O.3     
  13 C13           -2.2483     7.3488     3.9466 C.2     
  14 C14           -3.0385     7.9048     5.1031 C.3     
  15 O15           -1.6841     8.0979     3.1847 O.2     
  16 N16           -2.6000     9.2792     5.3800 N.3     
  17 C17           -4.5272     7.9058     4.7500 C.3     
  18 C18           -4.9840     6.4743     4.4615 C.3     
  19 C19           -5.3295     8.4703     5.9241 C.3     
  20 N20            1.3553     2.0359     0.0001 N.am    
  21 C21            2.0114     2.1805    -1.1683 C.2     
  22 C22            3.4248     2.7034    -1.1789 C.3     
  23 O23            1.4645     1.8899    -2.2110 O.2     
  24 O24           -1.3370    -0.5000    -0.0535 O.3     
  25 O25           -1.4066    -0.4227     2.5006 O.3     
  26 C26            0.6339    -0.3741     3.7592 C.2     
  27 O27            0.8520    -1.6786     3.9886 O.3     
  28 O28            0.9960     0.4498     4.5654 O.2     
  29 C29            1.5281    -2.0263     5.2256 C.3     
  30 C30            1.6840    -3.5229     5.3092 C.2     
  31 N31            2.2875    -4.0788     6.3784 N.am    
  32 O32            1.2664    -4.2271     4.4144 O.2     
  33 C33            2.4390    -5.5337     6.4598 C.3     
  34 C34            2.7920    -3.2283     7.4593 C.3     
  35 H35           -0.5477     1.8895    -0.8712 H       
  36 H36            0.5591    -0.3564    -0.8662 H       
  37 H37            0.6500    -1.5908     1.3108 H       
  38 H38            1.7165    -0.1644     1.3002 H       
  39 H39           -1.7684     1.6687     1.2608 H       
  40 H40            0.3274     3.8870     1.3315 H       
  41 H41           -2.2960     3.7994     0.0908 H       
  42 H42           -2.4549     3.6835     2.5703 H       
  43 H43            0.1685     3.7711     3.8110 H       
  44 H44           -0.3630     5.8988     2.7300 H       
  45 H45           -1.8191     5.9559     1.7077 H       
  46 H46           -2.8749     7.2864     5.9856 H       
  47 H47           -1.6363     9.2980     5.6783 H       
  48 H48           -2.7415     9.8727     4.5764 H       
  49 H49           -4.6909     8.5242     3.8674 H       
  50 H50           -4.8203     5.8559     5.3441 H       
  51 H51           -6.0445     6.4751     4.2099 H       
  52 H52           -4.4124     6.0722     3.6250 H       
  53 H53           -5.0041     9.4901     6.1296 H       
  54 H54           -6.3901     8.4710     5.6726 H       
  55 H55           -5.1658     7.8519     6.8067 H       
  56 H56            1.7927     2.2683     0.8340 H       
  57 H57            4.0632     2.0368    -0.5991 H       
  58 H58            3.7868     2.7510    -2.2060 H       
  59 H59            3.4466     3.7006    -0.7395 H       
  60 H60           -1.3990    -1.4650    -0.0617 H       
  61 H61           -1.9372    -0.1048     3.2438 H       
  62 H62            2.5116    -1.5569     5.2465 H       
  63 H63            0.9394    -1.6744     6.0727 H       
  64 H64            3.3843    -5.8267     6.0029 H       
  65 H65            2.4298    -5.8421     7.5052 H       
  66 H66            1.6158    -6.0149     5.9318 H       
  67 H67            2.5900    -2.1834     7.2237 H       
  68 H68            2.2945    -3.4931     8.3923 H       
  69 H69            3.8667    -3.3755     7.5660 H       
@<TRIPOS>BOND
   1    1    2 1
   2    1   20 1
   3    1    6 1
   4    1   35 1
   5    2    3 1
   6    2   24 1
   7    2   36 1
   8    3    4 1
   9    3   37 1
  10    3   38 1
  11    4    5 1
  12    4   25 1
  13    4   26 1
  14    5    6 1
  15    6    7 1
  16    6   39 1
  17    7    8 1
  18    7    9 1
  19    7   40 1
  20    8   41 1
  21    9   10 1
  22    9   11 1
  23    9   42 1
  24   10   43 1
  25   11   12 1
  26   11   44 1
  27   11   45 1
  28   12   13 1
  29   13   14 1
  30   13   15 2
  31   14   16 1
  32   14   17 1
  33   14   46 1
  34   16   47 1
  35   16   48 1
  36   17   18 1
  37   17   19 1
  38   17   49 1
  39   18   50 1
  40   18   51 1
  41   18   52 1
  42   19   53 1
  43   19   54 1
  44   19   55 1
  45   20   21 am
  46   20   56 1
  47   21   22 1
  48   21   23 2
  49   22   57 1
  50   22   58 1
  51   22   59 1
  52   24   60 1
  53   25   61 1
  54   26   27 1
  55   26   28 2
  56   27   29 1
  57   29   30 1
  58   29   62 1
  59   29   63 1
  60   30   31 am
  61   30   32 2
  62   31   33 1
  63   31   34 1
  64   33   64 1
  65   33   65 1
  66   33   66 1
  67   34   67 1
  68   34   68 1
  69   34   69 1

#	End of record

