#	Name: ASD04170040
#	Creating user name:	WinNT
#	Creation time:	15. 06. 2019 20:48

#	Modifying user name:	WinNT
#	Modification time:	15. 06. 2019 20:48

#	Program:	/corina/corina34_cracker 3.40 0067  02.08.2006

@<TRIPOS>MOLECULE
ASD04170040
  40   42    0    0    0
SMALL
NO_CHARGES


@<TRIPOS>ATOM
   1 O1             0.0015    -0.0037     0.0047 O.2     
   2 C2            -0.0146     1.2113     0.0138 C.2     
   3 N3             1.1435     1.9006     0.0013 N.am    
   4 C4             2.3635     1.2208     0.0917 C.ar    
   5 C5             2.4647     0.0732     0.8666 C.ar    
   6 C6             3.6703    -0.5955     0.9537 C.ar    
   7 C7             4.7756    -0.1228     0.2707 C.ar    
   8 C8             4.6780     1.0200    -0.5020 C.ar    
   9 C9             3.4740     1.6896    -0.5981 C.ar    
  10 C10            5.8854     1.5320    -1.2444 C.3     
  11 O11           -1.1894     1.8690     0.0308 O.3     
  12 C12           -2.3965     1.0621     0.0373 C.3     
  13 C13           -2.8080     0.7665     1.4813 C.3     
  14 N14           -4.1449     1.3055     1.7422 N.4     
  15 C15           -5.1350     0.6755     0.8656 C.3     
  16 C16           -4.8007     0.9688    -0.5987 C.3     
  17 C17           -3.5315     1.8293    -0.6537 C.3     
  18 C18           -3.7895     3.1223     0.1310 C.3     
  19 C19           -4.1565     2.7603     1.5720 C.3     
  20 H20            1.1314     2.8679    -0.0702 H       
  21 H21            1.6018    -0.2961     1.4009 H       
  22 H22            3.7496    -1.4882     1.5563 H       
  23 H23            5.7172    -0.6470     0.3411 H       
  24 H24            3.3985     2.5820    -1.2017 H       
  25 H25            5.9187     1.0832    -2.2371 H       
  26 H26            5.8218     2.6162    -1.3377 H       
  27 H27            6.7889     1.2670    -0.6953 H       
  28 H28           -2.2127     0.1255    -0.4892 H       
  29 H29           -2.8150    -0.3116     1.6419 H       
  30 H30           -2.0929     1.2273     2.1627 H       
  31 H31           -4.3901     1.1014     2.6994 H       
  32 H32           -5.1291    -0.4022     1.0290 H       
  33 H33           -6.1249     1.0691     1.0965 H       
  34 H34           -4.6303     0.0320    -1.1292 H       
  35 H35           -5.6277     1.5076    -1.0613 H       
  36 H36           -3.2661     2.0451    -1.6887 H       
  37 H37           -2.8900     3.7378     0.1268 H       
  38 H38           -4.6118     3.6706    -0.3286 H       
  39 H39           -5.1515     3.1430     1.7988 H       
  40 H40           -3.4339     3.2099     2.2530 H       
@<TRIPOS>BOND
   1    1    2 2
   2    2    3 am
   3    2   11 1
   4    3    4 1
   5    3   20 1
   6    4    5 ar
   7    4    9 ar
   8    5    6 ar
   9    5   21 1
  10    6    7 ar
  11    6   22 1
  12    7    8 ar
  13    7   23 1
  14    8    9 ar
  15    8   10 1
  16    9   24 1
  17   10   25 1
  18   10   26 1
  19   10   27 1
  20   11   12 1
  21   12   13 1
  22   12   17 1
  23   12   28 1
  24   13   14 1
  25   13   29 1
  26   13   30 1
  27   14   15 1
  28   14   19 1
  29   14   31 1
  30   15   16 1
  31   15   32 1
  32   15   33 1
  33   16   17 1
  34   16   34 1
  35   16   35 1
  36   17   18 1
  37   17   36 1
  38   18   19 1
  39   18   37 1
  40   18   38 1
  41   19   39 1
  42   19   40 1

#	End of record

