#	Name: ASD00170438
#	Creating user name:	WinNT
#	Creation time:	15. 06. 2019 18:32

#	Modifying user name:	WinNT
#	Modification time:	15. 06. 2019 18:32

#	Program:	/corina/corina34_cracker 3.40 0067  02.08.2006

@<TRIPOS>MOLECULE
ASD00170438
  77   81    0    0    0
SMALL
NO_CHARGES


@<TRIPOS>ATOM
   1 C1            -0.1480     0.4469    -1.8435 C.2     
   2 C2            -0.1147    -0.8685    -1.4308 C.2     
   3 C3            -1.2113    -1.2373    -0.6469 C.2     
   4 C4            -2.0894    -0.2425    -0.4438 C.2     
   5 S5            -1.5455     1.2218    -1.2465 S.3     
   6 C6            -1.3917    -2.6231    -0.0830 C.3     
   7 N7             0.8141     1.0513    -2.6228 N.pl3   
   8 C8             0.9667    -1.7910    -1.7806 C.2     
   9 C9             0.8217    -2.6933    -2.9429 C.ar    
  10 O10            1.9857    -1.8152    -1.1144 O.2     
  11 C11            1.8008    -3.6514    -3.2128 C.ar    
  12 C12            1.6599    -4.4905    -4.2980 C.ar    
  13 C13            0.5499    -4.3839    -5.1198 C.ar    
  14 C14           -0.4245    -3.4351    -4.8573 C.ar    
  15 C15           -0.2977    -2.5946    -3.7715 C.ar    
  16 Cl16           0.3797    -5.4434    -6.4844 Cl      
  17 N17           -1.5125    -2.5449     1.3790 N.3     
  18 C18           -3.3265    -0.3604     0.3424 C.2     
  19 C19           -2.1306    -3.7619     1.9220 C.3     
  20 C20           -0.2062    -2.2947     2.0026 C.3     
  21 C21           -3.5377    -3.9213     1.3427 C.3     
  22 C22           -4.1815    -5.1889     1.9083 C.3     
  23 C23           -3.3332    -6.4044     1.5292 C.3     
  24 C24           -1.9261    -6.2450     2.1085 C.3     
  25 C25           -1.2823    -4.9775     1.5429 C.3     
  26 C26            0.1765    -0.8255     1.8127 C.3     
  27 C27            1.5371    -0.5649     2.4622 C.3     
  28 C28            1.4579    -0.8822     3.9568 C.3     
  29 C29            1.0752    -2.3514     4.1467 C.3     
  30 C30           -0.2854    -2.6120     3.4972 C.3     
  31 C31           -4.1291     0.6913     0.4812 C.2     
  32 C32           -5.3969     0.5704     1.2869 C.3     
  33 C33           -5.4122     1.6274     2.3610 C.ar    
  34 C34           -5.9679     2.8666     2.1031 C.ar    
  35 C35           -5.9822     3.8363     3.0879 C.ar    
  36 C36           -5.4402     3.5666     4.3319 C.ar    
  37 C37           -4.8841     2.3262     4.5894 C.ar    
  38 C38           -4.8755     1.3554     3.6056 C.ar    
  39 Cl39          -5.4572     4.7843     5.5690 Cl      
  40 H40           -2.2948    -3.0699    -0.4988 H       
  41 H41           -0.5294    -3.2367    -0.3439 H       
  42 H42            1.6205     0.5672    -2.8601 H       
  43 H43            0.6851     1.9609    -2.9341 H       
  44 H44            2.6670    -3.7349    -2.5732 H       
  45 H45            2.4166    -5.2319    -4.5078 H       
  46 H46           -1.2876    -3.3565    -5.5018 H       
  47 H47           -1.0581    -1.8552    -3.5678 H       
  48 H48           -3.5835    -1.3008     0.8070 H       
  49 H49           -2.1911    -3.6854     3.0076 H       
  50 H50            0.5468    -2.9296     1.5357 H       
  51 H51           -4.1421    -3.0553     1.6128 H       
  52 H52           -3.4772    -3.9979     0.2571 H       
  53 H53           -4.2420    -5.1123     2.9939 H       
  54 H54           -5.1839    -5.3024     1.4956 H       
  55 H55           -3.7918    -7.3074     1.9321 H       
  56 H56           -3.2727    -6.4810     0.4436 H       
  57 H57           -1.9866    -6.1685     3.1941 H       
  58 H58           -1.3217    -7.1110     1.8384 H       
  59 H59           -1.2218    -5.0540     0.4573 H       
  60 H60           -0.2799    -4.8639     1.9556 H       
  61 H61            0.2329    -0.5994     0.7479 H       
  62 H62           -0.5766    -0.1907     2.2795 H       
  63 H63            2.2901    -1.1998     1.9953 H       
  64 H64            1.8097     0.4817     2.3269 H       
  65 H65            2.4272    -0.6966     4.4195 H       
  66 H66            0.7048    -0.2474     4.4237 H       
  67 H67            1.8282    -2.9863     3.6798 H       
  68 H68            1.0188    -2.5775     5.2115 H       
  69 H69           -1.0384    -1.9771     3.9640 H       
  70 H70           -0.5580    -3.6587     3.6324 H       
  71 H71           -3.8722     1.6318     0.0166 H       
  72 H72           -6.2578     0.7054     0.6321 H       
  73 H73           -5.4420    -0.4164     1.7475 H       
  74 H74           -6.3907     3.0771     1.1319 H       
  75 H75           -6.4161     4.8045     2.8862 H       
  76 H76           -4.4608     2.1151     5.5603 H       
  77 H77           -4.4414     0.3871     3.8065 H       
@<TRIPOS>BOND
   1    1    2 2
   2    1    7 1
   3    1    5 1
   4    2    3 1
   5    2    8 1
   6    3    4 2
   7    3    6 1
   8    4    5 1
   9    4   18 1
  10    6   17 1
  11    6   40 1
  12    6   41 1
  13    7   42 1
  14    7   43 1
  15    8    9 1
  16    8   10 2
  17    9   11 ar
  18    9   15 ar
  19   11   12 ar
  20   11   44 1
  21   12   13 ar
  22   12   45 1
  23   13   14 ar
  24   13   16 1
  25   14   15 ar
  26   14   46 1
  27   15   47 1
  28   17   19 1
  29   17   20 1
  30   18   31 2
  31   18   48 1
  32   19   21 1
  33   19   25 1
  34   19   49 1
  35   20   26 1
  36   20   30 1
  37   20   50 1
  38   21   22 1
  39   21   51 1
  40   21   52 1
  41   22   23 1
  42   22   53 1
  43   22   54 1
  44   23   24 1
  45   23   55 1
  46   23   56 1
  47   24   25 1
  48   24   57 1
  49   24   58 1
  50   25   59 1
  51   25   60 1
  52   26   27 1
  53   26   61 1
  54   26   62 1
  55   27   28 1
  56   27   63 1
  57   27   64 1
  58   28   29 1
  59   28   65 1
  60   28   66 1
  61   29   30 1
  62   29   67 1
  63   29   68 1
  64   30   69 1
  65   30   70 1
  66   31   32 1
  67   31   71 1
  68   32   33 1
  69   32   72 1
  70   32   73 1
  71   33   34 ar
  72   33   38 ar
  73   34   35 ar
  74   34   74 1
  75   35   36 ar
  76   35   75 1
  77   36   37 ar
  78   36   39 1
  79   37   38 ar
  80   37   76 1
  81   38   77 1

#	End of record

