#	Name: ASD05250028
#	Creating user name:	WinNT
#	Creation time:	15. 06. 2019 20:58

#	Modifying user name:	WinNT
#	Modification time:	15. 06. 2019 20:58

#	Program:	/corina/corina34_cracker 3.40 0067  02.08.2006

@<TRIPOS>MOLECULE
ASD05250028
  22   23    0    0    0
SMALL
NO_CHARGES


@<TRIPOS>ATOM
   1 C1            -0.0171     1.4107     0.0098 C.ar    
   2 C2             0.0021    -0.0041     0.0020 C.ar    
   3 C3            -1.2801    -0.7326     0.0304 C.2     
   4 C4            -2.4252    -0.1159    -0.2448 C.2     
   5 C5            -2.4847     1.3409    -0.6159 C.3     
   6 C6            -1.3248     2.0768     0.0189 C.2     
   7 C7             1.1819     2.1268     0.0022 C.ar    
   8 C8             2.3864     1.4344    -0.0243 C.ar    
   9 C9             2.3993     0.0521    -0.0407 C.ar    
  10 C10            1.2188    -0.6704    -0.0272 C.ar    
  11 O11           -1.2910    -2.0551     0.3424 O.3     
  12 O12           -1.4702     3.1741     0.5161 O.2     
  13 O13           -2.4110     1.4728    -2.0369 O.3     
  14 O14            1.1708     3.4826     0.0200 O.3     
  15 H15           -3.3449    -0.6805    -0.2007 H       
  16 H16           -3.4228     1.7675    -0.2610 H       
  17 H17            3.3186     1.9797    -0.0326 H       
  18 H18            3.3437    -0.4713    -0.0646 H       
  19 H19            1.2446    -1.7500    -0.0393 H       
  20 H20           -2.1723    -2.4531     0.3376 H       
  21 H21           -3.1267     1.0278    -2.5109 H       
  22 H22            1.1800     3.8643     0.9084 H       
@<TRIPOS>BOND
   1    1    2 ar
   2    1    7 ar
   3    1    6 1
   4    2    3 1
   5    2   10 ar
   6    3    4 2
   7    3   11 1
   8    4    5 1
   9    4   15 1
  10    5    6 1
  11    5   13 1
  12    5   16 1
  13    6   12 2
  14    7    8 ar
  15    7   14 1
  16    8    9 ar
  17    8   17 1
  18    9   10 ar
  19    9   18 1
  20   10   19 1
  21   11   20 1
  22   13   21 1
  23   14   22 1

#	End of record

