#	Name: ASD01940390
#	Creating user name:	WinNT
#	Creation time:	15. 06. 2019 20:12

#	Modifying user name:	WinNT
#	Modification time:	15. 06. 2019 20:12

#	Program:	/corina/corina34_cracker 3.40 0067  02.08.2006

@<TRIPOS>MOLECULE
ASD01940390
  43   45    0    0    0
SMALL
NO_CHARGES


@<TRIPOS>ATOM
   1 N1             1.2190     2.1186    -2.3829 N.pl3   
   2 N2             1.5620     0.9069    -2.9945 N.2     
   3 C3             2.3432     0.2240    -2.2085 C.2     
   4 C4             2.5530     0.9685    -1.0238 C.ar    
   5 C5             3.2920     0.7322     0.1495 C.ar    
   6 C6             3.2929     1.6969     1.1633 C.ar    
   7 C7             2.5615     2.8855     1.0036 C.ar    
   8 C8             1.8467     3.1136    -0.1309 C.ar    
   9 C9             1.8292     2.1668    -1.1589 C.ar    
  10 C10            4.0599     1.4659     2.3974 C.2     
  11 O11            4.7731     0.4853     2.4957 O.2     
  12 N12            3.9724     2.3406     3.4190 N.am    
  13 O13            4.7106     2.1183     4.6067 O.3     
  14 C14            4.5228     3.1237     5.6046 C.3     
  15 C15            5.3634     2.7827     6.8367 C.3     
  16 O16            6.7505     2.8407     6.4979 O.3     
  17 N17            4.0097    -0.4414     0.2999 N.pl3   
  18 C18            3.4395    -1.5300     0.9732 C.ar    
  19 C19            4.1116    -2.7471     1.0224 C.ar    
  20 C20            3.5489    -3.8200     1.6871 C.ar    
  21 C21            2.3121    -3.6823     2.3057 C.ar    
  22 C22            1.6421    -2.4665     2.2558 C.ar    
  23 C23            2.2068    -1.3925     1.5960 C.ar    
  24 S24            1.5937    -5.0500     3.1528 S.3     
  25 C25            0.0271    -4.3725     3.7670 C.3     
  26 F26            5.3137    -2.8801     0.4204 F       
  27 H27            0.6507     2.8068    -2.7628 H       
  28 H28            2.7609    -0.7483    -2.4244 H       
  29 H29            2.5666     3.6257     1.7899 H       
  30 H30            1.2890     4.0322    -0.2380 H       
  31 H31            3.4037     3.1225     3.3406 H       
  32 H32            4.8336     4.0907     5.2091 H       
  33 H33            3.4700     3.1666     5.8836 H       
  34 H34            5.1529     3.4999     7.6300 H       
  35 H35            5.1148     1.7783     7.1795 H       
  36 H36            7.3439     2.6352     7.2333 H       
  37 H37            4.9075    -0.5104    -0.0608 H       
  38 H38            4.0699    -4.7653     1.7254 H       
  39 H39            0.6809    -2.3599     2.7367 H       
  40 H40            1.6872    -0.4463     1.5616 H       
  41 H41           -0.5782    -4.0363     2.9251 H       
  42 H42           -0.5119    -5.1441     4.3167 H       
  43 H43            0.2299    -3.5299     4.4280 H       
@<TRIPOS>BOND
   1    1    2 1
   2    1    9 1
   3    1   27 1
   4    2    3 2
   5    3    4 1
   6    3   28 1
   7    4    5 ar
   8    4    9 ar
   9    5    6 ar
  10    5   17 1
  11    6    7 ar
  12    6   10 1
  13    7    8 ar
  14    7   29 1
  15    8    9 ar
  16    8   30 1
  17   10   11 2
  18   10   12 am
  19   12   13 1
  20   12   31 1
  21   13   14 1
  22   14   15 1
  23   14   32 1
  24   14   33 1
  25   15   16 1
  26   15   34 1
  27   15   35 1
  28   16   36 1
  29   17   18 1
  30   17   37 1
  31   18   19 ar
  32   18   23 ar
  33   19   20 ar
  34   19   26 1
  35   20   21 ar
  36   20   38 1
  37   21   22 ar
  38   21   24 1
  39   22   23 ar
  40   22   39 1
  41   23   40 1
  42   24   25 1
  43   25   41 1
  44   25   42 1
  45   25   43 1

#	End of record

