#	Name: ASD01001130
#	Creating user name:	WinNT
#	Creation time:	15. 06. 2019 18:55

#	Modifying user name:	WinNT
#	Modification time:	15. 06. 2019 18:55

#	Program:	/corina/corina34_cracker 3.40 0067  02.08.2006

@<TRIPOS>MOLECULE
ASD01001130
  49   51    0    0    0
SMALL
NO_CHARGES


@<TRIPOS>ATOM
   1 C1            -0.3812     2.4477     0.4237 C.2     
   2 S2            -0.1195     0.7091     0.4069 S.3     
   3 C3             1.5704     0.9152     0.5194 C.2     
   4 C4             1.8924     2.2134     0.5652 C.2     
   5 C5             0.8271     3.0806     0.5135 C.2     
   6 C6            -1.6850     3.1118     0.3473 C.2     
   7 O7            -1.7510     4.3270     0.3667 O.2     
   8 N8            -2.8111     2.3771     0.2557 N.am    
   9 C9            -6.0183     4.5403     0.0788 C.2     
  10 C10           -6.3812     3.2535     0.0285 C.2     
  11 C11           -5.2428     2.3549     0.0885 C.2     
  12 C12           -4.0437     3.0050     0.1835 C.2     
  13 S13           -4.2732     4.6918     0.2014 S.3     
  14 C14           -7.8260     2.7923    -0.0789 C.3     
  15 C15           -8.6857     3.9704    -0.5427 C.3     
  16 C16           -8.3956     5.1847     0.3446 C.3     
  17 C17           -6.9888     5.7048     0.0295 C.3     
  18 C18           -5.3664     0.8947     0.0509 C.2     
  19 O19           -5.4049     0.2603     1.0889 O.2     
  20 N20           -5.4376     0.2547    -1.1331 N.am    
  21 C21           -5.4995     1.0233    -2.3787 C.3     
  22 C22           -4.0881     1.1913    -2.9450 C.3     
  23 C23           -6.8987    -1.7065    -1.1092 C.3     
  24 C24           -5.4530    -1.2097    -1.1744 C.3     
  25 C25           -9.4216     6.2834     0.0599 C.3     
  26 H26            2.2850     0.1060     0.5502 H       
  27 H27            2.9144     2.5547     0.6377 H       
  28 H28            0.9341     4.1549     0.5412 H       
  29 H29           -2.7585     1.4087     0.2403 H       
  30 H30           -7.8976     1.9804    -0.8026 H       
  31 H31           -8.1730     2.4479     0.8953 H       
  32 H32           -8.4462     4.2106    -1.5785 H       
  33 H33           -9.7400     3.7052    -0.4638 H       
  34 H34           -8.4539     4.8924     1.3930 H       
  35 H35           -6.7052     6.4487     0.7739 H       
  36 H36           -6.9712     6.1535    -0.9638 H       
  37 H37           -6.1205     0.4943    -3.1016 H       
  38 H38           -5.9300     2.0046    -2.1791 H       
  39 H39           -3.4448     1.6426    -2.1897 H       
  40 H40           -3.6905     0.2157    -3.2250 H       
  41 H41           -4.1235     1.8350    -3.8239 H       
  42 H42           -7.4567    -1.3131    -1.9589 H       
  43 H43           -6.9101    -2.7960    -1.1400 H       
  44 H44           -7.3590    -1.3643    -0.1824 H       
  45 H45           -4.9927    -1.5519    -2.1013 H       
  46 H46           -4.8950    -1.6030    -0.3247 H       
  47 H47          -10.4231     5.9094     0.2730 H       
  48 H48           -9.2141     7.1469     0.6918 H       
  49 H49           -9.3587     6.5765    -0.9881 H       
@<TRIPOS>BOND
   1    1    2 1
   2    1    5 2
   3    1    6 1
   4    2    3 1
   5    3    4 2
   6    3   26 1
   7    4    5 1
   8    4   27 1
   9    5   28 1
  10    6    7 2
  11    6    8 am
  12    8   12 1
  13    8   29 1
  14    9   10 2
  15    9   13 1
  16    9   17 1
  17   10   11 1
  18   10   14 1
  19   11   12 2
  20   11   18 1
  21   12   13 1
  22   14   15 1
  23   14   30 1
  24   14   31 1
  25   15   16 1
  26   15   32 1
  27   15   33 1
  28   16   17 1
  29   16   25 1
  30   16   34 1
  31   17   35 1
  32   17   36 1
  33   18   19 2
  34   18   20 am
  35   20   21 1
  36   20   24 1
  37   21   22 1
  38   21   37 1
  39   21   38 1
  40   22   39 1
  41   22   40 1
  42   22   41 1
  43   23   24 1
  44   23   42 1
  45   23   43 1
  46   23   44 1
  47   24   45 1
  48   24   46 1
  49   25   47 1
  50   25   48 1
  51   25   49 1

#	End of record

