#	Name: ASD01883422
#	Creating user name:	WinNT
#	Creation time:	15. 06. 2019 19:46

#	Modifying user name:	WinNT
#	Modification time:	15. 06. 2019 19:46

#	Program:	/corina/corina34_cracker 3.40 0067  02.08.2006

@<TRIPOS>MOLECULE
ASD01883422
  44   45    0    0    0
SMALL
NO_CHARGES


@<TRIPOS>ATOM
   1 N1            -0.1734     1.5967    -0.1018 N.am    
   2 C2            -0.0593     0.2560    -0.1390 C.2     
   3 C3            -1.2209    -0.5524    -0.0944 C.2     
   4 C4            -2.4736     0.0717    -0.0118 C.2     
   5 C5            -2.5292     1.4746     0.0237 C.2     
   6 C6            -1.3874     2.1981    -0.0161 C.2     
   7 O7             1.0425    -0.2615    -0.2114 O.2     
   8 C8            -1.1182    -1.9802    -0.1335 C.1     
   9 N9            -1.0367    -3.1128    -0.1646 N.1     
  10 C10           -4.3747    -0.6012     1.2366 C.3     
  11 C11           -5.8497    -0.8605     0.9176 C.3     
  12 C12           -6.6567    -0.8528     2.2179 C.3     
  13 N13           -6.1427    -1.8907     3.1206 N.3     
  14 C14           -4.7414    -1.6367     3.4787 C.3     
  15 C15           -3.8772    -1.6678     2.2160 C.3     
  16 C16            1.0359     2.4224    -0.1485 C.3     
  17 C17            1.3784     2.7431    -1.6048 C.3     
  18 C18            2.6414     3.6054    -1.6536 C.3     
  19 C19            3.8300     2.7993    -1.1263 C.3     
  20 C20            2.9136     4.0299    -3.0981 C.3     
  21 O21           -3.6076    -0.6636     0.0325 O.3     
  22 H22           -3.4839     1.9756     0.0869 H       
  23 H23           -1.4430     3.2763     0.0121 H       
  24 H24           -4.2672     0.3860     1.6861 H       
  25 H25           -6.2212    -0.0796     0.2541 H       
  26 H26           -5.9518    -1.8308     0.4317 H       
  27 H27           -6.5653     0.1224     2.6963 H       
  28 H28           -7.7052    -1.0513     1.9958 H       
  29 H29           -6.7182    -1.9697     3.9457 H       
  30 H30           -4.6590    -0.6579     3.9512 H       
  31 H31           -4.3989    -2.4047     4.1722 H       
  32 H32           -3.9483    -2.6509     1.7505 H       
  33 H33           -2.8396    -1.4638     2.4801 H       
  34 H34            0.8637     3.3502     0.3971 H       
  35 H35            1.8638     1.8804     0.3086 H       
  36 H36            1.5507     1.8153    -2.1503 H       
  37 H37            0.5505     3.2851    -2.0619 H       
  38 H38            2.5003     4.4917    -1.0349 H       
  39 H39            4.7298     3.4136    -1.1610 H       
  40 H40            3.6361     2.4969    -0.0972 H       
  41 H41            3.9711     1.9130    -1.7449 H       
  42 H42            2.0667     4.6042    -3.4738 H       
  43 H43            3.8133     4.6442    -3.1329 H       
  44 H44            3.0546     3.1436    -3.7168 H       
@<TRIPOS>BOND
   1    1    2 am
   2    1   16 1
   3    1    6 1
   4    2    3 1
   5    2    7 2
   6    3    4 2
   7    3    8 1
   8    4    5 1
   9    4   21 1
  10    5    6 2
  11    5   22 1
  12    6   23 1
  13    8    9 3
  14   10   11 1
  15   10   21 1
  16   10   15 1
  17   10   24 1
  18   11   12 1
  19   11   25 1
  20   11   26 1
  21   12   13 1
  22   12   27 1
  23   12   28 1
  24   13   14 1
  25   13   29 1
  26   14   15 1
  27   14   30 1
  28   14   31 1
  29   15   32 1
  30   15   33 1
  31   16   17 1
  32   16   34 1
  33   16   35 1
  34   17   18 1
  35   17   36 1
  36   17   37 1
  37   18   19 1
  38   18   20 1
  39   18   38 1
  40   19   39 1
  41   19   40 1
  42   19   41 1
  43   20   42 1
  44   20   43 1
  45   20   44 1

#	End of record

