#	Name: ASD09360004
#	Creating user name:	WinNT
#	Creation time:	15. 06. 2019 21:21

#	Modifying user name:	WinNT
#	Modification time:	15. 06. 2019 21:21

#	Program:	/corina/corina34_cracker 3.40 0067  02.08.2006

@<TRIPOS>MOLECULE
ASD09360004
  77   83    0    0    0
SMALL
NO_CHARGES


@<TRIPOS>ATOM
   1 N1            -0.1229     1.0544     0.1616 N.am    
   2 C2             0.0817    -0.2686     0.0279 C.2     
   3 C3            -1.2016    -0.9546    -0.2258 C.2     
   4 C4            -2.1990    -0.0389    -0.2468 C.2     
   5 C5            -1.5605     1.3066     0.0081 C.3     
   6 C6             0.8583     2.0167     0.4088 C.ar    
   7 C7            -2.1249     1.9184     1.2643 C.ar    
   8 C8            -3.6236    -0.3027    -0.4679 C.2     
   9 O9             1.1629    -0.8181     0.1042 O.2     
  10 O10           -1.3559    -2.2862    -0.4089 O.3     
  11 O11           -4.2584    -0.9413     0.3509 O.2     
  12 C12           -4.2888     0.2063    -1.6844 C.ar    
  13 C13           -3.0166     2.9682     1.1786 C.ar    
  14 C14           -3.5377     3.5330     2.3411 C.ar    
  15 C15           -3.1549     3.0339     3.5842 C.ar    
  16 C16           -2.2623     1.9835     3.6582 C.ar    
  17 C17           -1.7526     1.4231     2.5011 C.ar    
  18 C18            2.1887     1.6342     0.5383 C.ar    
  19 C19            3.1588     2.5825     0.7828 C.ar    
  20 C20            2.8052     3.9260     0.8998 C.ar    
  21 C21            1.4706     4.3074     0.7691 C.ar    
  22 C22            0.5043     3.3566     0.5195 C.ar    
  23 C23           -5.6558    -0.0138    -1.8784 C.ar    
  24 C24           -6.2744     0.4613    -3.0120 C.ar    
  25 C25           -5.5379     1.1627    -3.9678 C.ar    
  26 C26           -4.1732     1.3827    -3.7755 C.ar    
  27 C27           -3.5533     0.9136    -2.6401 C.ar    
  28 C28            3.8474     4.9481     1.1633 C.ar    
  29 C29            3.4957     6.2914     1.2805 C.ar    
  30 C30            4.4697     7.2382     1.5258 C.ar    
  31 C31            5.7926     6.8559     1.6547 C.ar    
  32 C32            6.1475     5.5237     1.5388 C.ar    
  33 C33            5.1813     4.5678     1.3003 C.ar    
  34 C34            4.0910     8.6913     1.6528 C.3     
  35 C35           -4.4965     4.6622     2.2552 C.ar    
  36 C36           -4.9324     5.2989     3.4156 C.ar    
  37 C37           -5.8242     6.3486     3.3304 C.ar    
  38 C38           -6.2860     6.7690     2.0951 C.ar    
  39 C39           -5.8564     6.1395     0.9396 C.ar    
  40 C40           -4.9596     5.0932     1.0137 C.ar    
  41 C41           -6.2056     1.6740    -5.1884 C.ar    
  42 C42           -5.4543     2.2776    -6.1962 C.ar    
  43 C43           -6.0808     2.7518    -7.3302 C.ar    
  44 C44           -7.4531     2.6292    -7.4686 C.ar    
  45 C45           -8.2038     2.0310    -6.4707 C.ar    
  46 C46           -7.5865     1.5478    -5.3354 C.ar    
  47 Br47          -7.5083     8.2076     1.9857 Br      
  48 Cl48          -8.2351     3.2280    -8.8982 Cl      
  49 H49           -1.7301     1.9688    -0.8410 H       
  50 H50           -0.5307    -2.7881    -0.3605 H       
  51 H51           -3.3097     3.3515     0.2124 H       
  52 H52           -3.5555     3.4682     4.4883 H       
  53 H53           -1.9645     1.5960     4.6213 H       
  54 H54           -1.0544     0.6014     2.5636 H       
  55 H55            2.4623     0.5934     0.4476 H       
  56 H56            4.1921     2.2849     0.8840 H       
  57 H57            1.1945     5.3476     0.8598 H       
  58 H58           -0.5296     3.6517     0.4178 H       
  59 H59           -6.2258    -0.5568    -1.1391 H       
  60 H60           -7.3303     0.2911    -3.1623 H       
  61 H61           -3.6043     1.9253    -4.5161 H       
  62 H62           -2.4972     1.0840    -2.4915 H       
  63 H63            2.4631     6.5911     1.1793 H       
  64 H64            6.5514     7.6001     1.8462 H       
  65 H65            7.1821     5.2309     1.6397 H       
  66 H66            5.4595     3.5281     1.2104 H       
  67 H67            3.8650     8.9182     2.6947 H       
  68 H68            4.9204     9.3137     1.3170 H       
  69 H69            3.2135     8.8931     1.0385 H       
  70 H70           -4.5732     4.9712     4.3799 H       
  71 H71           -6.1626     6.8428     4.2291 H       
  72 H72           -6.2199     6.4710    -0.0219 H       
  73 H73           -4.6250     4.6027     0.1115 H       
  74 H74           -4.3840     2.3741    -6.0890 H       
  75 H75           -5.4999     3.2198    -8.1111 H       
  76 H76           -9.2739     1.9384    -6.5833 H       
  77 H77           -8.1730     1.0814    -4.5577 H       
@<TRIPOS>BOND
   1    1    2 am
   2    1    6 1
   3    1    5 1
   4    2    3 1
   5    2    9 2
   6    3    4 2
   7    3   10 1
   8    4    5 1
   9    4    8 1
  10    5    7 1
  11    5   49 1
  12    6   18 ar
  13    6   22 ar
  14    7   13 ar
  15    7   17 ar
  16    8   11 2
  17    8   12 1
  18   10   50 1
  19   12   23 ar
  20   12   27 ar
  21   13   14 ar
  22   13   51 1
  23   14   15 ar
  24   14   35 1
  25   15   16 ar
  26   15   52 1
  27   16   17 ar
  28   16   53 1
  29   17   54 1
  30   18   19 ar
  31   18   55 1
  32   19   20 ar
  33   19   56 1
  34   20   21 ar
  35   20   28 1
  36   21   22 ar
  37   21   57 1
  38   22   58 1
  39   23   24 ar
  40   23   59 1
  41   24   25 ar
  42   24   60 1
  43   25   26 ar
  44   25   41 1
  45   26   27 ar
  46   26   61 1
  47   27   62 1
  48   28   29 ar
  49   28   33 ar
  50   29   30 ar
  51   29   63 1
  52   30   31 ar
  53   30   34 1
  54   31   32 ar
  55   31   64 1
  56   32   33 ar
  57   32   65 1
  58   33   66 1
  59   34   67 1
  60   34   68 1
  61   34   69 1
  62   35   36 ar
  63   35   40 ar
  64   36   37 ar
  65   36   70 1
  66   37   38 ar
  67   37   71 1
  68   38   39 ar
  69   38   47 1
  70   39   40 ar
  71   39   72 1
  72   40   73 1
  73   41   42 ar
  74   41   46 ar
  75   42   43 ar
  76   42   74 1
  77   43   44 ar
  78   43   75 1
  79   44   45 ar
  80   44   48 1
  81   45   46 ar
  82   45   76 1
  83   46   77 1

#	End of record

