#	Name: ASD01000016
#	Creating user name:	WinNT
#	Creation time:	15. 06. 2019 18:54

#	Modifying user name:	WinNT
#	Modification time:	15. 06. 2019 18:54

#	Program:	/corina/corina34_cracker 3.40 0067  02.08.2006

@<TRIPOS>MOLECULE
ASD01000016
  39   41    0    0    0
SMALL
NO_CHARGES


@<TRIPOS>ATOM
   1 Cl1            3.9119    -0.8184    -0.0393 Cl      
   2 C2            -0.0167     1.3780     0.0096 C.ar    
   3 C3             0.0021    -0.0041     0.0020 C.ar    
   4 C4             1.2083    -0.6792    -0.0132 C.ar    
   5 C5             2.3967     0.0287    -0.0208 C.ar    
   6 C6             2.3773     1.4123    -0.0131 C.ar    
   7 C7             1.1709     2.0861     0.0021 C.ar    
   8 C8             1.2286    -2.1860    -0.0210 C.3     
   9 N9            -0.0749    -2.7374     0.4303 N.3     
  10 N10           -0.1775    -4.0032    -0.0866 N.am    
  11 C11            0.6218    -4.1059    -1.3181 C.3     
  12 C12            1.3195    -2.7330    -1.4716 C.3     
  13 C13            1.6485    -5.2008    -1.1839 C.ar    
  14 C14           -0.9016    -5.0039     0.4527 C.2     
  15 C15           -1.6801    -4.7715     1.7219 C.3     
  16 O16           -0.9267    -6.0915    -0.0835 O.2     
  17 C17            2.3009    -5.3922     0.0198 C.ar    
  18 C18            3.2439    -6.3958     0.1460 C.ar    
  19 C19            3.5362    -7.2097    -0.9310 C.ar    
  20 C20            2.8825    -7.0199    -2.1401 C.ar    
  21 C21            1.9330    -6.0162    -2.2625 C.ar    
  22 O22            3.1688    -7.8191    -3.2013 O.3     
  23 H23           -0.9593     1.9050     0.0170 H       
  24 H24           -0.9258    -0.5566     0.0083 H       
  25 H25            3.3049     1.9655    -0.0187 H       
  26 H26            1.1556     3.1659     0.0081 H       
  27 H27            2.0459    -2.5662     0.5918 H       
  28 H28           -0.1320    -2.7524     1.4375 H       
  29 H29           -0.0260    -4.2977    -2.1735 H       
  30 H30            0.7766    -2.0927    -2.1668 H       
  31 H31            2.3577    -2.8531    -1.7809 H       
  32 H32           -2.6831    -4.4237     1.4744 H       
  33 H33           -1.7468    -5.7035     2.2831 H       
  34 H34           -1.1735    -4.0190     2.3262 H       
  35 H35            2.0739    -4.7566     0.8630 H       
  36 H36            3.7524    -6.5430     1.0873 H       
  37 H37            4.2733    -7.9928    -0.8322 H       
  38 H38            1.4199    -5.8691    -3.2013 H       
  39 H39            2.6196    -8.6132    -3.2551 H       
@<TRIPOS>BOND
   1    1    5 1
   2    2    3 ar
   3    2    7 ar
   4    2   23 1
   5    3    4 ar
   6    3   24 1
   7    4    5 ar
   8    4    8 1
   9    5    6 ar
  10    6    7 ar
  11    6   25 1
  12    7   26 1
  13    8    9 1
  14    8   12 1
  15    8   27 1
  16    9   10 1
  17    9   28 1
  18   10   11 1
  19   10   14 am
  20   11   12 1
  21   11   13 1
  22   11   29 1
  23   12   30 1
  24   12   31 1
  25   13   17 ar
  26   13   21 ar
  27   14   15 1
  28   14   16 2
  29   15   32 1
  30   15   33 1
  31   15   34 1
  32   17   18 ar
  33   17   35 1
  34   18   19 ar
  35   18   36 1
  36   19   20 ar
  37   19   37 1
  38   20   21 ar
  39   20   22 1
  40   21   38 1
  41   22   39 1

#	End of record

