#	Name: ASD01913515
#	Creating user name:	WinNT
#	Creation time:	15. 06. 2019 20:01

#	Modifying user name:	WinNT
#	Modification time:	15. 06. 2019 20:01

#	Program:	/corina/corina34_cracker 3.40 0067  02.08.2006

@<TRIPOS>MOLECULE
ASD01913515
  33   35    0    0    0
SMALL
NO_CHARGES


@<TRIPOS>ATOM
   1 C1            -0.3494    -0.7026    -2.1263 C.ar    
   2 C2            -0.7976    -0.0351    -0.9910 C.ar    
   3 C3            -0.7691     1.3558    -0.9897 C.ar    
   4 N4            -0.3200     1.9896    -2.0604 N.ar    
   5 C5             0.0963     1.3212    -3.1172 C.ar    
   6 N6             0.0849     0.0039    -3.1569 N.ar    
   7 C7            -1.2359    -2.0817     0.0324 C.ar    
   8 C8            -0.0424    -2.7768     0.1686 C.ar    
   9 N9            -0.0182    -4.0941     0.1205 N.ar    
  10 C10           -1.1143    -4.8038    -0.0572 C.ar    
  11 C11           -2.3484    -4.1821    -0.2023 C.ar    
  12 C12           -2.4154    -2.7929    -0.1568 C.ar    
  13 N13           -3.5072    -4.9420    -0.3914 N.am    
  14 C14           -4.6721    -4.5421     0.1558 C.2     
  15 O15           -1.2521    -0.7240     0.0888 O.3     
  16 C16           -5.8726    -5.4040     0.0544 C.ar    
  17 O17           -4.7377    -3.4743     0.7325 O.2     
  18 N18           -5.7947    -6.5692    -0.5768 N.ar    
  19 C19           -6.8363    -7.3648    -0.6892 C.ar    
  20 C20           -8.0621    -7.0132    -0.1489 C.ar    
  21 C21           -8.1887    -5.8037     0.5196 C.ar    
  22 C22           -7.0720    -4.9875     0.6271 C.ar    
  23 Cl23          -9.7079    -5.3257     1.2106 Cl      
  24 H24           -0.3518    -1.7820    -2.1640 H       
  25 H25           -1.1090     1.9099    -0.1273 H       
  26 H26            0.4567     1.8686    -3.9755 H       
  27 H27            0.8783    -2.2317     0.3155 H       
  28 H28           -1.0525    -5.8816    -0.0908 H       
  29 H29           -3.3597    -2.2802    -0.2660 H       
  30 H30           -3.4725    -5.7568    -0.9165 H       
  31 H31           -6.7342    -8.3052    -1.2105 H       
  32 H32           -8.9110    -7.6735    -0.2472 H       
  33 H33           -7.1338    -4.0394     1.1405 H       
@<TRIPOS>BOND
   1    1    2 ar
   2    1    6 ar
   3    1   24 1
   4    2    3 ar
   5    2   15 1
   6    3    4 ar
   7    3   25 1
   8    4    5 ar
   9    5    6 ar
  10    5   26 1
  11    7    8 ar
  12    7   12 ar
  13    7   15 1
  14    8    9 ar
  15    8   27 1
  16    9   10 ar
  17   10   11 ar
  18   10   28 1
  19   11   12 ar
  20   11   13 1
  21   12   29 1
  22   13   14 am
  23   13   30 1
  24   14   16 1
  25   14   17 2
  26   16   18 ar
  27   16   22 ar
  28   18   19 ar
  29   19   20 ar
  30   19   31 1
  31   20   21 ar
  32   20   32 1
  33   21   22 ar
  34   21   23 1
  35   22   33 1

#	End of record

