#	Name: ASD01918627
#	Creating user name:	WinNT
#	Creation time:	15. 06. 2019 20:11

#	Modifying user name:	WinNT
#	Modification time:	15. 06. 2019 20:11

#	Program:	/corina/corina34_cracker 3.40 0067  02.08.2006

@<TRIPOS>MOLECULE
ASD01918627
  40   42    0    0    0
SMALL
NO_CHARGES


@<TRIPOS>ATOM
   1 F1             0.0003    -0.0041     0.0037 F       
   2 C2            -0.0176     1.3468     0.0107 C.ar    
   3 C3            -0.1124     2.0309     1.2111 C.ar    
   4 C4            -0.1308     3.4117     1.2204 C.ar    
   5 C5            -0.0538     4.1142     0.0251 C.ar    
   6 C6             0.0417     3.4264    -1.1774 C.ar    
   7 C7             0.0646     2.0456    -1.1821 C.ar    
   8 N8            -0.0728     5.5151     0.0324 N.am    
   9 C9            -1.2634     6.1689    -0.0456 C.2     
  10 C10           -1.3142     7.5183    -0.0408 C.2     
  11 C11           -0.1216     8.2638     0.0463 C.2     
  12 O12           -0.1561     9.6180     0.0526 O.3     
  13 C13            1.0972    10.2985     0.1435 C.3     
  14 C14            0.8586    11.8097     0.1367 C.3     
  15 O15            0.1392    12.1836     1.3135 O.3     
  16 C16           -0.1561    13.5016     1.4634 C.ar    
  17 C17            0.2335    14.4152     0.4948 C.ar    
  18 C18           -0.0672    15.7551     0.6482 C.ar    
  19 C19           -0.7557    16.1869     1.7661 C.ar    
  20 C20           -1.1459    15.2777     2.7355 C.ar    
  21 F21           -1.8189    15.7017     3.8275 F       
  22 C22           -0.8525    13.9344     2.5822 C.ar    
  23 C23            1.0845     7.5920     0.1256 C.2     
  24 C24            1.0867     6.1927     0.1219 C.2     
  25 O25            2.1434     5.5850     0.1955 O.2     
  26 H26           -0.1723     1.4841     2.1406 H       
  27 H27           -0.2054     3.9448     2.1567 H       
  28 H28            0.1016     3.9710    -2.1081 H       
  29 H29            0.1430     1.5104    -2.1168 H       
  30 H30           -2.1798     5.6013    -0.1124 H       
  31 H31           -2.2661     8.0247    -0.1039 H       
  32 H32            1.5989    10.0139     1.0683 H       
  33 H33            1.7214    10.0254    -0.7074 H       
  34 H34            1.8169    12.3287     0.1164 H       
  35 H35            0.2791    12.0822    -0.7453 H       
  36 H36            0.7722    14.0792    -0.3789 H       
  37 H37            0.2364    16.4658    -0.1062 H       
  38 H38           -0.9894    17.2347     1.8842 H       
  39 H39           -1.1610    13.2243     3.3352 H       
  40 H40            2.0125     8.1403     0.1932 H       
@<TRIPOS>BOND
   1    1    2 1
   2    2    7 ar
   3    2    3 ar
   4    3    4 ar
   5    3   26 1
   6    4    5 ar
   7    4   27 1
   8    5    6 ar
   9    5    8 1
  10    6    7 ar
  11    6   28 1
  12    7   29 1
  13    8   24 am
  14    8    9 1
  15    9   10 2
  16    9   30 1
  17   10   11 1
  18   10   31 1
  19   11   12 1
  20   11   23 2
  21   12   13 1
  22   13   14 1
  23   13   32 1
  24   13   33 1
  25   14   15 1
  26   14   34 1
  27   14   35 1
  28   15   16 1
  29   16   22 ar
  30   16   17 ar
  31   17   18 ar
  32   17   36 1
  33   18   19 ar
  34   18   37 1
  35   19   20 ar
  36   19   38 1
  37   20   21 1
  38   20   22 ar
  39   22   39 1
  40   23   24 1
  41   23   40 1
  42   24   25 2

#	End of record

