#	Name: ASD01881077
#	Creating user name:	WinNT
#	Creation time:	15. 06. 2019 19:41

#	Modifying user name:	WinNT
#	Modification time:	15. 06. 2019 19:41

#	Program:	/corina/corina34_cracker 3.40 0067  02.08.2006

@<TRIPOS>MOLECULE
ASD01881077
  49   52    0    0    0
SMALL
NO_CHARGES


@<TRIPOS>ATOM
   1 C1            -0.0169     1.3951     0.0097 C.ar    
   2 C2             0.0021    -0.0041     0.0020 C.ar    
   3 C3             1.2093    -0.6927    -0.0127 C.ar    
   4 C4             2.4035     0.0238    -0.0202 C.ar    
   5 C5             2.3732     1.4391    -0.0128 C.ar    
   6 C6             1.1476     2.1094     0.0024 C.ar    
   7 C7             3.7068    -0.6442    -0.0352 C.2     
   8 C8             4.8269     0.0960    -0.0415 C.2     
   9 N9             4.8012     1.4615    -0.0340 N.am    
  10 C10            3.6491     2.1602    -0.0207 C.2     
  11 C11            6.0709     2.1923    -0.0413 C.3     
  12 C12            6.5003     2.4543    -1.4863 C.3     
  13 C13            7.8263     3.2175    -1.4939 C.3     
  14 O14            3.6679     3.3782    -0.0143 O.2     
  15 Cl15           1.1045     3.8449     0.0110 Cl      
  16 C16           -1.2749    -0.7575     0.0101 C.ar    
  17 C17           -2.4992    -0.0788     0.0254 C.ar    
  18 C18           -3.6622    -0.8226     0.0320 C.ar    
  19 C19           -3.5804    -2.2124     0.0233 C.ar    
  20 N20           -2.4051    -2.8239     0.0093 N.ar    
  21 C21           -1.2730    -2.1500    -0.0032 C.ar    
  22 N22           -4.7457    -2.9675     0.0298 N.3     
  23 C23           -4.4415    -4.4058     0.0188 C.3     
  24 C24           -5.7492    -5.1990     0.0867 C.3     
  25 O25           -6.5910    -4.8152    -1.0039 O.3     
  26 C26           -6.9078    -3.4207    -1.0236 C.3     
  27 C27           -5.6118    -2.6095    -1.1028 C.3     
  28 H28           -0.9628     1.9162     0.0170 H       
  29 H29            1.2212    -1.7726    -0.0179 H       
  30 H30            3.7664    -1.7225    -0.0408 H       
  31 H31            5.7827    -0.4066    -0.0526 H       
  32 H32            5.9465     3.1421     0.4787 H       
  33 H33            6.8342     1.5994     0.4627 H       
  34 H34            6.6247     1.5045    -2.0063 H       
  35 H35            5.7370     3.0472    -1.9903 H       
  36 H36            7.7018     4.1674    -0.9739 H       
  37 H37            8.5896     2.6247    -0.9899 H       
  38 H38            8.1322     3.4042    -2.5233 H       
  39 H39           -2.5330     1.0007     0.0323 H       
  40 H40           -4.6244    -0.3321     0.0441 H       
  41 H41           -0.3338    -2.6831    -0.0148 H       
  42 H42           -3.9099    -4.6584    -0.8987 H       
  43 H43           -3.8206    -4.6531     0.8798 H       
  44 H44           -5.5321    -6.2651     0.0212 H       
  45 H45           -6.2549    -4.9871     1.0288 H       
  46 H46           -7.5285    -3.2007    -1.8922 H       
  47 H47           -7.4471    -3.1571    -0.1138 H       
  48 H48           -5.8452    -1.5456    -1.0605 H       
  49 H49           -5.0989    -2.8333    -2.0382 H       
@<TRIPOS>BOND
   1    1    2 ar
   2    1    6 ar
   3    1   28 1
   4    2    3 ar
   5    2   16 1
   6    3    4 ar
   7    3   29 1
   8    4    5 ar
   9    4    7 1
  10    5    6 ar
  11    5   10 1
  12    6   15 1
  13    7    8 2
  14    7   30 1
  15    8    9 1
  16    8   31 1
  17    9   10 am
  18    9   11 1
  19   10   14 2
  20   11   12 1
  21   11   32 1
  22   11   33 1
  23   12   13 1
  24   12   34 1
  25   12   35 1
  26   13   36 1
  27   13   37 1
  28   13   38 1
  29   16   17 ar
  30   16   21 ar
  31   17   18 ar
  32   17   39 1
  33   18   19 ar
  34   18   40 1
  35   19   20 ar
  36   19   22 1
  37   20   21 ar
  38   21   41 1
  39   22   23 1
  40   22   27 1
  41   23   24 1
  42   23   42 1
  43   23   43 1
  44   24   25 1
  45   24   44 1
  46   24   45 1
  47   25   26 1
  48   26   27 1
  49   26   46 1
  50   26   47 1
  51   27   48 1
  52   27   49 1

#	End of record

