#	Name: ASD02030152
#	Creating user name:	WinNT
#	Creation time:	15. 06. 2019 20:14

#	Modifying user name:	WinNT
#	Modification time:	15. 06. 2019 20:14

#	Program:	/corina/corina34_cracker 3.40 0067  02.08.2006

@<TRIPOS>MOLECULE
ASD02030152
  55   58    0    0    0
SMALL
NO_CHARGES


@<TRIPOS>ATOM
   1 N1            -0.1993     1.1701     0.7089 N.am    
   2 C2            -0.2749    -0.2971     0.7484 C.3     
   3 C3            -1.4133    -0.7040     1.6923 C.3     
   4 N4            -2.6172     0.0579     1.3317 N.am    
   5 C5            -2.5416     1.5250     1.2922 C.3     
   6 C6            -1.4047     1.9321     0.3538 C.3     
   7 C7             0.9534     1.8056     0.9987 C.2     
   8 C8             2.1186     1.0374     1.4862 C.2     
   9 N9             3.2556     1.5437     1.9125 N.2     
  10 N10            2.2011    -0.3027     1.5775 N.2     
  11 C11            3.3868    -0.5879     2.0521 C.2     
  12 N12            4.0350     0.5771     2.2569 N.pl3   
  13 O13            1.0348     3.0104     0.8592 O.2     
  14 C14           -3.7699    -0.5776     1.0420 C.2     
  15 C15           -3.8030    -2.0542     0.9736 C.ar    
  16 O16           -4.7823     0.0631     0.8369 O.2     
  17 C17           -1.1290     3.4299     0.5007 C.3     
  18 C18           -1.7947     1.6176    -1.0918 C.3     
  19 C19           -4.1793    -2.6926    -0.2090 C.ar    
  20 C20            5.3364     0.7133     2.7589 C.ar    
  21 C21            5.8902     1.9760     2.9228 C.ar    
  22 C22            7.1730     2.1069     3.4177 C.ar    
  23 C23            7.9058     0.9821     3.7494 C.ar    
  24 C24            7.3570    -0.2768     3.5872 C.ar    
  25 C25            6.0725    -0.4140     3.0986 C.ar    
  26 C26           -4.2079    -4.0709    -0.2671 C.ar    
  27 C27           -3.8647    -4.8205     0.8435 C.ar    
  28 C28           -3.4902    -4.1938     2.0204 C.ar    
  29 C29           -3.4525    -2.8155     2.0897 C.ar    
  30 Cl30          -3.0611    -5.1432     3.4090 Cl      
  31 C31           -4.5543    -1.8781    -1.4202 C.3     
  32 H32           -0.4749    -0.6802    -0.2523 H       
  33 H33            0.6678    -0.7022     1.1163 H       
  34 H34           -1.6108    -1.7709     1.5886 H       
  35 H35           -1.1330    -0.4796     2.7215 H       
  36 H36           -3.4843     1.9302     0.9244 H       
  37 H37           -2.3417     1.9081     2.2929 H       
  38 H38            3.7748    -1.5767     2.2475 H       
  39 H39           -0.7239     3.6291     1.4929 H       
  40 H40           -0.4088     3.7426    -0.2553 H       
  41 H41           -2.0579     3.9849     0.3694 H       
  42 H42           -2.6962     2.1715    -1.3537 H       
  43 H43           -0.9830     1.9086    -1.7586 H       
  44 H44           -1.9826     0.5487    -1.1931 H       
  45 H45            5.3186     2.8548     2.6633 H       
  46 H46            7.6043     3.0887     3.5454 H       
  47 H47            8.9089     1.0870     4.1355 H       
  48 H48            7.9318    -1.1534     3.8471 H       
  49 H49            5.6443    -1.3974     2.9725 H       
  50 H50           -4.4994    -4.5656    -1.1818 H       
  51 H51           -3.8891    -5.8990     0.7928 H       
  52 H52           -3.1600    -2.3274     3.0077 H       
  53 H53           -3.6525    -1.6072    -1.9693 H       
  54 H54           -5.2093    -2.4649    -2.0642 H       
  55 H55           -5.0723    -0.9729    -1.1032 H       
@<TRIPOS>BOND
   1    1    2 1
   2    1    7 am
   3    1    6 1
   4    2    3 1
   5    2   32 1
   6    2   33 1
   7    3    4 1
   8    3   34 1
   9    3   35 1
  10    4    5 1
  11    4   14 am
  12    5    6 1
  13    5   36 1
  14    5   37 1
  15    6   17 1
  16    6   18 1
  17    7    8 1
  18    7   13 2
  19    8    9 2
  20    8   10 1
  21    9   12 1
  22   10   11 2
  23   11   12 1
  24   11   38 1
  25   12   20 1
  26   14   15 1
  27   14   16 2
  28   15   19 ar
  29   15   29 ar
  30   17   39 1
  31   17   40 1
  32   17   41 1
  33   18   42 1
  34   18   43 1
  35   18   44 1
  36   19   26 ar
  37   19   31 1
  38   20   21 ar
  39   20   25 ar
  40   21   22 ar
  41   21   45 1
  42   22   23 ar
  43   22   46 1
  44   23   24 ar
  45   23   47 1
  46   24   25 ar
  47   24   48 1
  48   25   49 1
  49   26   27 ar
  50   26   50 1
  51   27   28 ar
  52   27   51 1
  53   28   29 ar
  54   28   30 1
  55   29   52 1
  56   31   53 1
  57   31   54 1
  58   31   55 1

#	End of record

