#	Name: ASD01903139
#	Creating user name:	WinNT
#	Creation time:	15. 06. 2019 19:54

#	Modifying user name:	WinNT
#	Modification time:	15. 06. 2019 19:54

#	Program:	/corina/corina34_cracker 3.40 0067  02.08.2006

@<TRIPOS>MOLECULE
ASD01903139
  40   42    0    0    0
SMALL
NO_CHARGES


@<TRIPOS>ATOM
   1 C1             1.2686    -1.6629     0.4122 C.ar    
   2 C2             0.3829    -1.0442    -0.4558 C.ar    
   3 C3             0.7828     0.0948    -1.1368 C.ar    
   4 N4             1.9880     0.5935    -0.9696 N.ar    
   5 C5             2.8663     0.0316    -0.1478 C.ar    
   6 C6             2.5324    -1.1152     0.5688 C.ar    
   7 C7             4.2127     0.6292     0.0083 C.2     
   8 N8             4.5417     1.7388    -0.6824 N.am    
   9 O9             5.0206     0.1190     0.7592 O.2     
  10 C10            5.7759     2.3584    -0.4634 C.ar    
  11 C11            6.8993     1.5916    -0.1816 C.ar    
  12 C12            8.1169     2.2067     0.0342 C.ar    
  13 C13            8.2183     3.5844    -0.0301 C.ar    
  14 C14            7.1018     4.3506    -0.3100 C.ar    
  15 C15            5.8825     3.7415    -0.5329 C.ar    
  16 S16            9.7736     4.3651     0.2459 S.o2    
  17 O17            9.4912     5.7211     0.5633 O.2     
  18 O18           10.5088     3.5030     1.1035 O.2     
  19 N19           10.5777     4.3813    -1.2017 N.am    
  20 C20           10.9060     3.1782    -1.8322 C.ar    
  21 C21           10.6668     3.0167    -3.1908 C.ar    
  22 C22           10.9922     1.8265    -3.8113 C.ar    
  23 C23           11.5562     0.7954    -3.0807 C.ar    
  24 C24           11.7952     0.9534    -1.7268 C.ar    
  25 C25           11.4774     2.1436    -1.1025 C.ar    
  26 Cl26          11.9640    -0.6992    -3.8638 Cl      
  27 H27            0.9793    -2.5490     0.9577 H       
  28 H28           -0.6091    -1.4460    -0.6005 H       
  29 H29            0.0952     0.5792    -1.8143 H       
  30 H30            3.2481    -1.5714     1.2367 H       
  31 H31            3.9222     2.1076    -1.3314 H       
  32 H32            6.8207     0.5157    -0.1308 H       
  33 H33            8.9906     1.6112     0.2538 H       
  34 H34            7.1843     5.4264    -0.3592 H       
  35 H35            5.0108     4.3405    -0.7515 H       
  36 H36           10.8207     5.2260    -1.6121 H       
  37 H37           10.2264     3.8209    -3.7614 H       
  38 H38           10.8061     1.7003    -4.8676 H       
  39 H39           12.2347     0.1468    -1.1589 H       
  40 H40           11.6645     2.2665    -0.0459 H       
@<TRIPOS>BOND
   1    1    2 ar
   2    1    6 ar
   3    1   27 1
   4    2    3 ar
   5    2   28 1
   6    3    4 ar
   7    3   29 1
   8    4    5 ar
   9    5    6 ar
  10    5    7 1
  11    6   30 1
  12    7    8 am
  13    7    9 2
  14    8   10 1
  15    8   31 1
  16   10   11 ar
  17   10   15 ar
  18   11   12 ar
  19   11   32 1
  20   12   13 ar
  21   12   33 1
  22   13   14 ar
  23   13   16 1
  24   14   15 ar
  25   14   34 1
  26   15   35 1
  27   16   17 2
  28   16   18 2
  29   16   19 am
  30   19   20 1
  31   19   36 1
  32   20   21 ar
  33   20   25 ar
  34   21   22 ar
  35   21   37 1
  36   22   23 ar
  37   22   38 1
  38   23   24 ar
  39   23   26 1
  40   24   25 ar
  41   24   39 1
  42   25   40 1

#	End of record

