#	Name: ASD08170706
#	Creating user name:	WinNT
#	Creation time:	15. 06. 2019 21:17

#	Modifying user name:	WinNT
#	Modification time:	15. 06. 2019 21:17

#	Program:	/corina/corina34_cracker 3.40 0067  02.08.2006

@<TRIPOS>MOLECULE
ASD08170706
  64   69    0    0    0
SMALL
NO_CHARGES


@<TRIPOS>ATOM
   1 C1            -0.0162     1.3436     0.0094 C.2     
   2 N2             0.0021    -0.0041     0.0020 N.am    
   3 C3             1.2158    -0.6830    -0.0132 C.2     
   4 S4             1.4076    -2.3853    -0.0242 S.3     
   5 C5             3.1580    -2.1679    -0.0409 C.2     
   6 C6             4.1900    -3.2660    -0.0576 C.3     
   7 C7             4.5540    -3.6458     1.3791 C.3     
   8 C8             5.9656    -5.1405     2.7988 C.3     
   9 C9             6.9976    -6.2386     2.7820 C.2     
  10 S10            6.6720    -7.9722     2.7755 S.3     
  11 C11            8.3590    -8.2693     2.7566 C.2     
  12 N12            8.9613    -9.5228     2.7427 N.am    
  13 N13            2.3916    -0.1314    -0.0272 N.2     
  14 N14            3.3971    -0.8949    -0.0366 N.2     
  15 N15            8.2828    -6.0789     2.7641 N.2     
  16 N16            8.9825    -7.1298     2.7567 N.2     
  17 O17            1.0258     1.9642     0.0028 O.2     
  18 C18            5.6016    -4.7607     1.3621 C.3     
  19 C19           -1.3314     2.0792     0.0197 C.3     
  20 C20           -2.1217     1.7285     1.2878 C.3     
  21 C21           10.3051    -9.6247     2.7284 C.2     
  22 O22           10.9892    -8.6232     2.7278 O.2     
  23 C23           10.9577   -10.9830     2.7133 C.3     
  24 C24           -1.0918     3.5692     0.0679 C.ar    
  25 C25           -1.6614     4.0974     1.2260 C.ar    
  26 C26           -2.3059     3.0368     2.0180 C.2     
  27 C27           -0.4342     4.4015    -0.8182 C.ar    
  28 C28           -0.3381     5.7571    -0.5627 C.ar    
  29 C29           -0.9002     6.2910     0.5841 C.ar    
  30 C30           -1.5585     5.4748     1.4765 C.ar    
  31 O31           -2.8846     3.1879     3.0728 O.2     
  32 C32           10.5523   -11.7485     1.4463 C.3     
  33 C33           11.8430   -12.0126     0.7093 C.2     
  34 C34           12.9455   -11.4361     1.4965 C.ar    
  35 C35           12.4594   -10.8362     2.6578 C.ar    
  36 C36           14.3254   -11.4181     1.2390 C.ar    
  37 C37           15.1852   -10.8128     2.1279 C.ar    
  38 C38           14.6930   -10.2205     3.2781 C.ar    
  39 C39           13.3354   -10.2329     3.5404 C.ar    
  40 O40           11.9526   -12.5977    -0.3470 O.2     
  41 H41           -0.8313    -0.5005     0.0073 H       
  42 H42            3.7850    -4.1373    -0.5723 H       
  43 H43            5.0820    -2.9184    -0.5787 H       
  44 H44            4.9589    -2.7745     1.8937 H       
  45 H45            3.6619    -3.9934     1.9001 H       
  46 H46            5.0736    -5.4881     3.3198 H       
  47 H47            6.3706    -4.2691     3.3134 H       
  48 H48            8.4142   -10.3238     2.7432 H       
  49 H49            5.1967    -5.6320     0.8474 H       
  50 H50            6.4937    -4.4130     0.8410 H       
  51 H51           -1.9114     1.8209    -0.8663 H       
  52 H52           -3.0902     1.3037     1.0238 H       
  53 H53           -1.5567     1.0287     1.9035 H       
  54 H54           10.6683   -11.5469     3.6001 H       
  55 H55            0.0065     3.9912    -1.7147 H       
  56 H56            0.1773     6.4011    -1.2598 H       
  57 H57           -0.8225     7.3504     0.7791 H       
  58 H58           -1.9961     5.8949     2.3701 H       
  59 H59           10.0696   -12.6891     1.7115 H       
  60 H60            9.8858   -11.1404     0.8346 H       
  61 H61           14.7130   -11.8799     0.3429 H       
  62 H62           16.2463   -10.8004     1.9274 H       
  63 H63           15.3712    -9.7472     3.9725 H       
  64 H64           12.9576    -9.7687     4.4394 H       
@<TRIPOS>BOND
   1    1    2 am
   2    1   17 2
   3    1   19 1
   4    2    3 1
   5    2   41 1
   6    3    4 1
   7    3   13 2
   8    4    5 1
   9    5    6 1
  10    5   14 2
  11    6    7 1
  12    6   42 1
  13    6   43 1
  14    7   18 1
  15    7   44 1
  16    7   45 1
  17    8    9 1
  18    8   18 1
  19    8   46 1
  20    8   47 1
  21    9   10 1
  22    9   15 2
  23   10   11 1
  24   11   12 1
  25   11   16 2
  26   12   21 am
  27   12   48 1
  28   13   14 1
  29   15   16 1
  30   18   49 1
  31   18   50 1
  32   19   20 1
  33   19   24 1
  34   19   51 1
  35   20   26 1
  36   20   52 1
  37   20   53 1
  38   21   22 2
  39   21   23 1
  40   23   32 1
  41   23   35 1
  42   23   54 1
  43   24   25 ar
  44   24   27 ar
  45   25   26 1
  46   25   30 ar
  47   26   31 2
  48   27   28 ar
  49   27   55 1
  50   28   29 ar
  51   28   56 1
  52   29   30 ar
  53   29   57 1
  54   30   58 1
  55   32   33 1
  56   32   59 1
  57   32   60 1
  58   33   34 1
  59   33   40 2
  60   34   35 ar
  61   34   36 ar
  62   35   39 ar
  63   36   37 ar
  64   36   61 1
  65   37   38 ar
  66   37   62 1
  67   38   39 ar
  68   38   63 1
  69   39   64 1

#	End of record

