#	Name: ASD01812133
#	Creating user name:	WinNT
#	Creation time:	15. 06. 2019 19:28

#	Modifying user name:	WinNT
#	Modification time:	15. 06. 2019 19:28

#	Program:	/corina/corina34_cracker 3.40 0067  02.08.2006

@<TRIPOS>MOLECULE
ASD01812133
  57   62    0    0    0
SMALL
NO_CHARGES


@<TRIPOS>ATOM
   1 C1            -0.0168     1.3869     0.0097 C.ar    
   2 C2             0.0021    -0.0041     0.0020 C.ar    
   3 C3             1.1801    -0.6897    -0.0129 C.ar    
   4 C4             2.3948     0.0129    -0.0207 C.ar    
   5 C5             2.3717     1.4290    -0.0129 C.ar    
   6 C6             1.1455     2.1015     0.0024 C.ar    
   7 C7             3.6293    -0.6694    -0.0365 C.ar    
   8 C8             4.8031     0.0063    -0.0446 C.ar    
   9 C9             4.8359     1.4095    -0.0374 C.ar    
  10 C10            3.6406     2.1511    -0.0211 C.ar    
  11 C11            6.1026     2.1526    -0.0470 C.2     
  12 N12            6.0328     3.5041    -0.0399 N.am    
  13 C13            4.8302     4.1313    -0.0241 C.2     
  14 N14            3.6961     3.4935    -0.0158 N.2     
  15 O15            7.1745     1.5748    -0.0604 O.2     
  16 C16            3.6424    -2.1763    -0.0442 C.3     
  17 C17            3.5087    -2.6726    -1.4608 C.2     
  18 C18            4.5161    -2.9204    -2.3015 C.2     
  19 C19            7.2655     4.2957    -0.0490 C.3     
  20 C20            7.3191     5.1738     1.2050 C.3     
  21 C21            8.5722     6.0528     1.1462 C.3     
  22 C22            8.5459     6.8800    -0.1417 C.3     
  23 O23            8.4647     6.0036    -1.2676 O.3     
  24 C24            7.2896     5.1908    -1.2907 C.3     
  25 O25            7.3710     4.3444     2.3675 O.3     
  26 N26            4.1736    -3.3490    -3.4967 N.2     
  27 C27            2.9004    -3.4856    -3.7330 C.2     
  28 S28            1.9960    -3.0330    -2.2904 S.3     
  29 C29            2.3087    -3.9519    -5.0061 C.2     
  30 C30            2.9944    -4.3128    -6.1320 C.2     
  31 N31            2.0887    -4.6736    -7.0622 N.pl3   
  32 N32            0.8108    -4.5357    -6.5073 N.2     
  33 C33            0.9340    -4.1112    -5.2782 C.2     
  34 C34            2.3896    -5.1308    -8.4211 C.3     
  35 H35           -0.9630     1.9076     0.0169 H       
  36 H36           -0.9305    -0.5488     0.0083 H       
  37 H37            1.1786    -1.7697    -0.0183 H       
  38 H38            1.1188     3.1811     0.0081 H       
  39 H39            5.7317    -0.5451    -0.0563 H       
  40 H40            4.8132     5.2111    -0.0182 H       
  41 H41            4.5813    -2.5336     0.3789 H       
  42 H42            2.8098    -2.5499     0.5518 H       
  43 H43            5.5483    -2.7774    -2.0177 H       
  44 H44            8.1276     3.6288    -0.0638 H       
  45 H45            6.4320     5.8058     1.2457 H       
  46 H46            8.5896     6.7204     2.0076 H       
  47 H47            9.4607     5.4214     1.1555 H       
  48 H48            7.6788     7.5404    -0.1319 H       
  49 H49            9.4561     7.4758    -0.2098 H       
  50 H50            7.2948     4.5697    -2.1865 H       
  51 H51            6.4061     5.8291    -1.2959 H       
  52 H52            7.4068     4.8355     3.1997 H       
  53 H53            4.0675    -4.3089    -6.2542 H       
  54 H54            0.1242    -3.9098    -4.5926 H       
  55 H55            2.5060    -6.2146    -8.4223 H       
  56 H56            1.5731    -4.8523    -9.0873 H       
  57 H57            3.3136    -4.6658    -8.7647 H       
@<TRIPOS>BOND
   1    1    2 ar
   2    1    6 ar
   3    1   35 1
   4    2    3 ar
   5    2   36 1
   6    3    4 ar
   7    3   37 1
   8    4    5 ar
   9    4    7 ar
  10    5    6 ar
  11    5   10 ar
  12    6   38 1
  13    7    8 ar
  14    7   16 1
  15    8    9 ar
  16    8   39 1
  17    9   10 ar
  18    9   11 1
  19   10   14 1
  20   11   12 am
  21   11   15 2
  22   12   13 1
  23   12   19 1
  24   13   14 2
  25   13   40 1
  26   16   17 1
  27   16   41 1
  28   16   42 1
  29   17   18 2
  30   17   28 1
  31   18   26 1
  32   18   43 1
  33   19   20 1
  34   19   24 1
  35   19   44 1
  36   20   21 1
  37   20   25 1
  38   20   45 1
  39   21   22 1
  40   21   46 1
  41   21   47 1
  42   22   23 1
  43   22   48 1
  44   22   49 1
  45   23   24 1
  46   24   50 1
  47   24   51 1
  48   25   52 1
  49   26   27 2
  50   27   28 1
  51   27   29 1
  52   29   30 2
  53   29   33 1
  54   30   31 1
  55   30   53 1
  56   31   32 1
  57   31   34 1
  58   32   33 2
  59   33   54 1
  60   34   55 1
  61   34   56 1
  62   34   57 1

#	End of record

