#	Name: ASD09800034
#	Creating user name:	WinNT
#	Creation time:	15. 06. 2019 21:24

#	Modifying user name:	WinNT
#	Modification time:	15. 06. 2019 21:24

#	Program:	/corina/corina34_cracker 3.40 0067  02.08.2006

@<TRIPOS>MOLECULE
ASD09800034
  55   59    0    0    0
SMALL
NO_CHARGES


@<TRIPOS>ATOM
   1 C1            -1.2789     0.0740     1.7507 C.2     
   2 N2            -2.0368    -0.9779     2.0006 N.2     
   3 C3            -2.9635    -1.3913     1.1261 C.2     
   4 C4            -3.1637    -0.7561    -0.0426 C.2     
   5 C5            -1.4507     0.7805     0.5422 C.2     
   6 C6            -0.8507     1.8943    -0.0310 C.2     
   7 N7            -2.4044     0.3480    -0.3607 N.pl3   
   8 C8            -2.3642     1.1845    -1.4128 C.2     
   9 N9            -1.4477     2.0980    -1.2158 N.2     
  10 C10            0.2408     2.7045     0.5548 C.ar    
  11 C11            1.0756     4.8228     1.3238 C.ar    
  12 C12            2.2853     4.2219     1.6508 C.ar    
  13 C13            2.4737     2.8637     1.4247 C.ar    
  14 C14            1.4587     2.1063     0.8797 C.ar    
  15 C15            0.0559     4.0710     0.7782 C.ar    
  16 N16            3.3179     4.9872     2.2036 N.am    
  17 C17            4.1431     4.4438     3.1202 C.2     
  18 N18            5.0817     5.2047     3.7173 N.am    
  19 O19            4.0408     3.2670     3.4085 O.2     
  20 C20            5.8725     4.6670     4.7388 C.ar    
  21 C21            7.9632     4.5579     5.9081 C.ar    
  22 C22            7.1850     5.0907     4.8988 C.ar    
  23 C23            5.3445     3.7123     5.5984 C.ar    
  24 C24            6.1275     3.1835     6.6055 C.ar    
  25 C25            7.4362     3.6039     6.7589 C.ar    
  26 C26            5.5554     2.1477     7.5386 C.3     
  27 F27            5.7805     0.8710     7.0126 F       
  28 F28            6.1749     2.2530     8.7885 F       
  29 F29            4.1795     2.3574     7.6809 F       
  30 N30           -0.3276     0.4835     2.6698 N.pl3   
  31 C31           -3.2394     1.0833    -2.6354 C.3     
  32 C32           -4.7545     1.0885    -2.4221 C.3     
  33 C33           -4.0619     2.3150    -3.0193 C.3     
  34 C34           -2.6889     0.2188    -3.7714 C.3     
  35 Cl35          -1.4549     4.8220     0.3692 Cl      
  36 H36           -3.5644    -2.2563     1.3650 H       
  37 H37           -3.9176    -1.1111    -0.7296 H       
  38 H38            0.9323     5.8786     1.5007 H       
  39 H39            3.4152     2.4001     1.6798 H       
  40 H40            1.6061     1.0508     0.7048 H       
  41 H41            3.4399     5.9090     1.9272 H       
  42 H42            5.2090     6.1252     3.4389 H       
  43 H43            8.9841     4.8871     6.0331 H       
  44 H44            7.5973     5.8359     4.2346 H       
  45 H45            4.3224     3.3841     5.4796 H       
  46 H46            8.0468     3.1883     7.5468 H       
  47 H47           -0.1645    -0.0446     3.4670 H       
  48 H48            0.1757     1.2984     2.5165 H       
  49 H49           -5.3590     0.4762    -3.0912 H       
  50 H50           -5.1181     1.1650    -1.3974 H       
  51 H51           -3.9699     3.1985    -2.3876 H       
  52 H52           -4.2108     2.5097    -4.0814 H       
  53 H53           -2.5430    -0.8007    -3.4142 H       
  54 H54           -3.3960     0.2154    -4.6009 H       
  55 H55           -1.7355     0.6256    -4.1084 H       
@<TRIPOS>BOND
   1    1    2 2
   2    1   30 1
   3    1    5 1
   4    2    3 1
   5    3    4 2
   6    3   36 1
   7    4    7 1
   8    4   37 1
   9    5    7 1
  10    5    6 2
  11    6    9 1
  12    6   10 1
  13    7    8 1
  14    8    9 2
  15    8   31 1
  16   10   15 ar
  17   10   14 ar
  18   11   12 ar
  19   11   15 ar
  20   11   38 1
  21   12   13 ar
  22   12   16 1
  23   13   14 ar
  24   13   39 1
  25   14   40 1
  26   15   35 1
  27   16   17 am
  28   16   41 1
  29   17   18 am
  30   17   19 2
  31   18   20 1
  32   18   42 1
  33   20   23 ar
  34   20   22 ar
  35   21   22 ar
  36   21   25 ar
  37   21   43 1
  38   22   44 1
  39   23   24 ar
  40   23   45 1
  41   24   25 ar
  42   24   26 1
  43   25   46 1
  44   26   27 1
  45   26   28 1
  46   26   29 1
  47   30   47 1
  48   30   48 1
  49   31   32 1
  50   31   33 1
  51   31   34 1
  52   32   33 1
  53   32   49 1
  54   32   50 1
  55   33   51 1
  56   33   52 1
  57   34   53 1
  58   34   54 1
  59   34   55 1

#	End of record

