#	Name: ASD02190027
#	Creating user name:	WinNT
#	Creation time:	15. 06. 2019 20:18

#	Modifying user name:	WinNT
#	Modification time:	15. 06. 2019 20:18

#	Program:	/corina/corina34_cracker 3.40 0067  02.08.2006

@<TRIPOS>MOLECULE
ASD02190027
  42   44    0    0    0
SMALL
NO_CHARGES


@<TRIPOS>ATOM
   1 N1             0.8280   -10.9263     6.0473 N.am    
   2 C2             0.6221   -10.1533     4.9627 C.2     
   3 O3            -0.1151   -10.5337     4.0780 O.2     
   4 C4             1.3079    -8.8162     4.8491 C.3     
   5 C5             0.9126    -8.1573     3.5527 C.ar    
   6 C6            -0.1968    -7.3329     3.5080 C.ar    
   7 C7            -0.5621    -6.7279     2.3215 C.ar    
   8 C8             0.1864    -6.9480     1.1723 C.ar    
   9 N9            -0.1803    -6.3368    -0.0303 N.pl3   
  10 C10            0.0459    -6.9854    -1.2347 C.ar    
  11 N11            0.4994    -8.2338    -1.2531 N.ar    
  12 C12            0.7165    -8.8562    -2.4034 C.ar    
  13 N13            0.4926    -8.2635    -3.5679 N.ar    
  14 C14            0.0404    -7.0201    -3.6229 C.ar    
  15 C15           -0.2052    -6.3372    -2.4470 C.ar    
  16 C16           -0.2096    -6.3590    -4.9539 C.3     
  17 F17           -0.0027    -7.2859    -5.9812 F       
  18 F18           -1.5283    -5.8945    -5.0035 F       
  19 F19            0.6702    -5.2829    -5.1127 F       
  20 C20            1.2231   -10.2501    -2.3870 C.ar    
  21 C21            1.4582   -10.9228    -3.5846 C.ar    
  22 C22            1.9296   -12.2200    -3.5642 C.ar    
  23 C23            2.1684   -12.8530    -2.3581 C.ar    
  24 C24            1.9364   -12.1902    -1.1648 C.ar    
  25 Cl25           2.2388   -12.9920     0.3450 Cl      
  26 C26            1.4711   -10.8899    -1.1739 C.ar    
  27 C27            1.3005    -7.7763     1.2208 C.ar    
  28 C28            1.6632    -8.3740     2.4117 C.ar    
  29 H29            0.3865   -11.7869     6.1204 H       
  30 H30            1.4207   -10.6237     6.7531 H       
  31 H31            1.0095    -8.1827     5.6844 H       
  32 H32            2.3883    -8.9591     4.8694 H       
  33 H33           -0.7784    -7.1623     4.4019 H       
  34 H34           -1.4290    -6.0848     2.2871 H       
  35 H35           -0.5930    -5.4590    -0.0221 H       
  36 H36           -0.5784    -5.3239    -2.4645 H       
  37 H37            1.2715   -10.4300    -4.5274 H       
  38 H38            2.1119   -12.7418    -4.4920 H       
  39 H39            2.5369   -13.8681    -2.3470 H       
  40 H40            1.2952   -10.3715    -0.2429 H       
  41 H41            1.8846    -7.9494     0.3290 H       
  42 H42            2.5318    -9.0146     2.4511 H       
@<TRIPOS>BOND
   1    1    2 am
   2    1   29 1
   3    1   30 1
   4    2    3 2
   5    2    4 1
   6    4    5 1
   7    4   31 1
   8    4   32 1
   9    5    6 ar
  10    5   28 ar
  11    6    7 ar
  12    6   33 1
  13    7    8 ar
  14    7   34 1
  15    8    9 1
  16    8   27 ar
  17    9   10 1
  18    9   35 1
  19   10   11 ar
  20   10   15 ar
  21   11   12 ar
  22   12   13 ar
  23   12   20 1
  24   13   14 ar
  25   14   15 ar
  26   14   16 1
  27   15   36 1
  28   16   17 1
  29   16   18 1
  30   16   19 1
  31   20   21 ar
  32   20   26 ar
  33   21   22 ar
  34   21   37 1
  35   22   23 ar
  36   22   38 1
  37   23   24 ar
  38   23   39 1
  39   24   25 1
  40   24   26 ar
  41   26   40 1
  42   27   28 ar
  43   27   41 1
  44   28   42 1

#	End of record

