#	Name: ASD07300958
#	Creating user name:	WinNT
#	Creation time:	15. 06. 2019 21:10

#	Modifying user name:	WinNT
#	Modification time:	15. 06. 2019 21:10

#	Program:	/corina/corina34_cracker 3.40 0067  02.08.2006

@<TRIPOS>MOLECULE
ASD07300958
  50   54    0    0    0
SMALL
NO_CHARGES


@<TRIPOS>ATOM
   1 N1             0.0488     1.6498     0.3947 N.am    
   2 C2             0.1117     0.3155     0.1564 C.2     
   3 N3             1.2336    -0.3299     0.0264 N.2     
   4 C4             2.4217     0.2879     0.1199 C.2     
   5 C5             2.4572     1.6697     0.3648 C.2     
   6 C6             1.1848     2.3771     0.5083 C.2     
   7 N7             3.7131    -0.1232     0.0292 N.pl3   
   8 N8             4.5432     0.9894     0.2155 N.2     
   9 C9             3.8111     2.0507     0.4140 C.2     
  10 O10            1.1489     3.5761     0.7214 O.2     
  11 C11            4.1610    -1.4956    -0.2203 C.3     
  12 C12            4.8938    -1.5592    -1.5639 C.3     
  13 C13            5.4261    -2.9783    -1.7792 C.3     
  14 O14            6.2856    -3.3331    -0.6940 O.3     
  15 C15            5.6426    -3.3369     0.5822 C.3     
  16 C16            5.1189    -1.9322     0.8924 C.3     
  17 C17           -1.1781    -0.4547     0.0372 C.3     
  18 C18           -1.7553    -0.9028     1.3903 C.3     
  19 C19           -2.1221    -2.2299     0.7054 C.3     
  20 C20           -0.9781    -1.9456    -0.2822 C.3     
  21 C21           -0.7158    -1.0485     2.4716 C.2     
  22 O22           -0.6392    -0.3079     3.5853 O.3     
  23 C23            0.4208    -0.7418     4.2952 C.2     
  24 C24            0.9781    -1.7466     3.5994 C.2     
  25 N25            0.2531    -1.9191     2.4800 N.2     
  26 C26            0.8926    -0.2010     5.6204 C.3     
  27 C27            2.1929    -2.5415     4.0035 C.3     
  28 H28           -0.8139     2.0850     0.4800 H       
  29 H29            4.1807     3.0506     0.5865 H       
  30 H30            3.2988    -2.1620    -0.2432 H       
  31 H31            4.2035    -1.3032    -2.3677 H       
  32 H32            5.7257    -0.8550    -1.5588 H       
  33 H33            4.5907    -3.6770    -1.8247 H       
  34 H34            5.9854    -3.0188    -2.7140 H       
  35 H35            4.8100    -4.0403     0.5677 H       
  36 H36            6.3577    -3.6357     1.3486 H       
  37 H37            5.9554    -1.2355     0.9472 H       
  38 H38            4.5897    -1.9430     1.8453 H       
  39 H39           -1.9069     0.0373    -0.6070 H       
  40 H40           -2.6210    -0.3223     1.7095 H       
  41 H41           -1.9512    -3.1059     1.3311 H       
  42 H42           -3.1093    -2.2245     0.2433 H       
  43 H43           -1.2163    -2.2071    -1.3132 H       
  44 H44           -0.0137    -2.3362     0.0426 H       
  45 H45            0.1942     0.5582     5.9724 H       
  46 H46            0.9437    -1.0123     6.3465 H       
  47 H47            1.8812     0.2423     5.5007 H       
  48 H48            1.8849    -3.3920     4.6117 H       
  49 H49            2.7060    -2.8999     3.1110 H       
  50 H50            2.8667    -1.9076     4.5799 H       
@<TRIPOS>BOND
   1    1    2 1
   2    1    6 am
   3    1   28 1
   4    2    3 2
   5    2   17 1
   6    3    4 1
   7    4    5 2
   8    4    7 1
   9    5    6 1
  10    5    9 1
  11    6   10 2
  12    7    8 1
  13    7   11 1
  14    8    9 2
  15    9   29 1
  16   11   12 1
  17   11   16 1
  18   11   30 1
  19   12   13 1
  20   12   31 1
  21   12   32 1
  22   13   14 1
  23   13   33 1
  24   13   34 1
  25   14   15 1
  26   15   16 1
  27   15   35 1
  28   15   36 1
  29   16   37 1
  30   16   38 1
  31   17   18 1
  32   17   20 1
  33   17   39 1
  34   18   19 1
  35   18   21 1
  36   18   40 1
  37   19   20 1
  38   19   41 1
  39   19   42 1
  40   20   43 1
  41   20   44 1
  42   21   22 1
  43   21   25 2
  44   22   23 1
  45   23   24 2
  46   23   26 1
  47   24   25 1
  48   24   27 1
  49   26   45 1
  50   26   46 1
  51   26   47 1
  52   27   48 1
  53   27   49 1
  54   27   50 1

#	End of record

