#	Name: ASD02398043
#	Creating user name:	WinNT
#	Creation time:	15. 06. 2019 20:20

#	Modifying user name:	WinNT
#	Modification time:	15. 06. 2019 20:20

#	Program:	/corina/corina34_cracker 3.40 0067  02.08.2006

@<TRIPOS>MOLECULE
ASD02398043
  72   75    0    0    0
SMALL
NO_CHARGES


@<TRIPOS>ATOM
   1 C1             1.2894     2.7181    -0.6649 C.ar    
   2 C2             1.4702     1.3556    -0.9228 C.ar    
   3 C3             0.3942     0.5875    -1.3606 C.ar    
   4 C4            -0.8434     1.1731    -1.5375 C.ar    
   5 C5            -1.0192     2.5212    -1.2815 C.ar    
   6 C6             0.0408     3.2917    -0.8416 C.ar    
   7 C7            -2.0068     0.3410    -2.0117 C.3     
   8 C8            -2.6675    -0.3191    -0.8290 C.2     
   9 O9            -2.1826    -0.2102     0.2724 O.2     
  10 O10           -3.7946    -1.0280    -0.9989 O.3     
  11 C11            2.8021     0.7315    -0.7315 C.ar    
  12 C12            3.3498     0.6295     0.5461 C.ar    
  13 C13            3.5079     0.2398    -1.8278 C.ar    
  14 C14            4.7468    -0.3405    -1.6438 C.ar    
  15 C15            5.2877    -0.4343    -0.3744 C.ar    
  16 C16            4.5891     0.0475     0.7182 C.ar    
  17 C17            2.5903     1.1542     1.7372 C.3     
  18 N18            3.3068     0.8044     2.9662 N.am    
  19 C19            4.1764     1.6113     3.5848 C.2     
  20 N20            4.6962     1.0534     4.6932 N.am    
  21 C21            4.0917    -0.2844     4.8148 C.3     
  22 C22            3.1672    -0.3678     3.6164 C.2     
  23 O23            4.4646     2.7239     3.1897 O.2     
  24 O24            2.4547    -1.2978     3.3045 O.2     
  25 C25            5.1517    -1.3534     4.7472 C.ar    
  26 C26            4.8628    -2.6404     5.1607 C.ar    
  27 C27            6.4114    -1.0482     4.2665 C.ar    
  28 C28            7.3838    -2.0288     4.2045 C.ar    
  29 C29            7.0967    -3.3144     4.6237 C.ar    
  30 C30            5.8352    -3.6209     5.0988 C.ar    
  31 O31            2.3330     3.4752    -0.2371 O.3     
  32 C32            2.0737     4.8592     0.0061 C.3     
  33 C33            3.2927    -0.3980     6.1146 C.3     
  34 C34            5.6735     1.6582     5.6017 C.3     
  35 C35            4.9504     2.4144     6.6862 C.2     
  36 O36            3.7426     2.4450     6.6990 O.2     
  37 O37            5.6481     3.0539     7.6381 O.3     
  38 C38            4.8856     3.7617     8.6510 C.3     
  39 C39           -4.4329    -1.5481     0.1970 C.3     
  40 C40            6.6405    -1.0693    -0.1800 C.3     
  41 F41            7.1443    -1.4819    -1.4181 F       
  42 F42            7.5144    -0.1389     0.3925 F       
  43 F43            6.5185    -2.1767     0.6663 F       
  44 H44            0.5278    -0.4651    -1.5617 H       
  45 H45           -1.9901     2.9729    -1.4221 H       
  46 H46           -0.1025     4.3436    -0.6434 H       
  47 H47           -2.7279     0.9809    -2.5203 H       
  48 H48           -1.6495    -0.4235    -2.7017 H       
  49 H49            3.0863     0.3122    -2.8194 H       
  50 H50            5.2946    -0.7223    -2.4927 H       
  51 H51            5.0163    -0.0284     1.7073 H       
  52 H52            2.5030     2.2383     1.6636 H       
  53 H53            1.5951     0.7101     1.7579 H       
  54 H54            3.8775    -2.8798     5.5325 H       
  55 H55            6.6357    -0.0438     3.9390 H       
  56 H56            8.3677    -1.7905     3.8283 H       
  57 H57            7.8563    -4.0805     4.5750 H       
  58 H58            5.6109    -4.6253     5.4263 H       
  59 H59            1.7271     5.3310    -0.9133 H       
  60 H60            1.3073     4.9556     0.7752 H       
  61 H61            2.9888     5.3468     0.3420 H       
  62 H62            2.4996     0.3498     6.1202 H       
  63 H63            2.8541    -1.3933     6.1858 H       
  64 H64            3.9551    -0.2313     6.9640 H       
  65 H65            6.2853     0.8756     6.0504 H       
  66 H66            6.3119     2.3438     5.0444 H       
  67 H67            4.2709     4.5258     8.1752 H       
  68 H68            4.2443     3.0576     9.1811 H       
  69 H69            5.5693     4.2331     9.3570 H       
  70 H70           -3.7173    -2.1482     0.7591 H       
  71 H71           -4.7766    -0.7188     0.8153 H       
  72 H72           -5.2839    -2.1677    -0.0856 H       
@<TRIPOS>BOND
   1    1    2 ar
   2    1   31 1
   3    1    6 ar
   4    2    3 ar
   5    2   11 1
   6    3    4 ar
   7    3   44 1
   8    4    5 ar
   9    4    7 1
  10    5    6 ar
  11    5   45 1
  12    6   46 1
  13    7    8 1
  14    7   47 1
  15    7   48 1
  16    8    9 2
  17    8   10 1
  18   10   39 1
  19   11   12 ar
  20   11   13 ar
  21   12   17 1
  22   12   16 ar
  23   13   14 ar
  24   13   49 1
  25   14   15 ar
  26   14   50 1
  27   15   16 ar
  28   15   40 1
  29   16   51 1
  30   17   18 1
  31   17   52 1
  32   17   53 1
  33   18   19 am
  34   18   22 am
  35   19   20 am
  36   19   23 2
  37   20   21 1
  38   20   34 1
  39   21   22 1
  40   21   25 1
  41   21   33 1
  42   22   24 2
  43   25   26 ar
  44   25   27 ar
  45   26   30 ar
  46   26   54 1
  47   27   28 ar
  48   27   55 1
  49   28   29 ar
  50   28   56 1
  51   29   30 ar
  52   29   57 1
  53   30   58 1
  54   31   32 1
  55   32   59 1
  56   32   60 1
  57   32   61 1
  58   33   62 1
  59   33   63 1
  60   33   64 1
  61   34   35 1
  62   34   65 1
  63   34   66 1
  64   35   36 2
  65   35   37 1
  66   37   38 1
  67   38   67 1
  68   38   68 1
  69   38   69 1
  70   39   70 1
  71   39   71 1
  72   39   72 1
  73   40   41 1
  74   40   42 1
  75   40   43 1

#	End of record

