#	Name: ASD02500123
#	Creating user name:	WinNT
#	Creation time:	15. 06. 2019 20:22

#	Modifying user name:	WinNT
#	Modification time:	15. 06. 2019 20:22

#	Program:	/corina/corina34_cracker 3.40 0067  02.08.2006

@<TRIPOS>MOLECULE
ASD02500123
  62   66    0    0    0
SMALL
NO_CHARGES


@<TRIPOS>ATOM
   1 N1             1.9610     3.8484    -1.5289 N.ar    
   2 C2             2.8869     3.4813    -0.6768 C.ar    
   3 C3             3.9718     2.6980    -1.0652 C.ar    
   4 C4             4.0895     2.2925    -2.3640 C.ar    
   5 C5             3.0929     2.6882    -3.2763 C.ar    
   6 C6             3.1466     2.3103    -4.6273 C.ar    
   7 C7             2.1633     2.7138    -5.4785 C.ar    
   8 C8             1.1039     3.4977    -5.0267 C.ar    
   9 C9             1.0205     3.8821    -3.7237 C.ar    
  10 C10            2.0163     3.4856    -2.8144 C.ar    
  11 S11           -0.3300     4.8742    -3.1791 S.o2    
  12 O12            0.2366     5.9787    -2.4876 O.2     
  13 O13           -1.1978     5.0182    -4.2951 O.2     
  14 N14           -1.1619     3.9928    -2.0506 N.am    
  15 C15           -1.7188     2.7670    -2.3982 C.ar    
  16 C16           -1.6181     1.6861    -1.5266 C.ar    
  17 C17           -2.1682     0.4718    -1.8678 C.ar    
  18 C18           -2.8286     0.3242    -3.0910 C.ar    
  19 C19           -2.9280     1.4115    -3.9641 C.ar    
  20 C20           -2.3808     2.6248    -3.6147 C.ar    
  21 C21           -3.4190    -0.9764    -3.4601 C.2     
  22 O22           -4.5309    -1.0222    -3.9502 O.2     
  23 N23           -2.7260    -2.1138    -3.2539 N.am    
  24 C24           -3.2381    -3.4010    -3.7446 C.3     
  25 C25           -2.1667    -4.0492    -4.6302 C.3     
  26 N26           -0.8852    -4.0244    -3.9111 N.am    
  27 C27           -0.3731    -2.7372    -3.4204 C.3     
  28 C28           -1.4418    -2.0883    -2.5398 C.3     
  29 C29            1.1868    -5.1019    -3.1662 C.ar    
  30 C30            1.8340    -6.2775    -2.7925 C.ar    
  31 C31            3.1258    -6.2061    -2.2957 C.ar    
  32 C32            3.7256    -4.9608    -2.1898 C.ar    
  33 C33            3.0222    -3.8327    -2.5806 C.ar    
  34 N34            1.7970    -3.9292    -3.0489 N.ar    
  35 C35           -0.1922    -5.1619    -3.7050 C.2     
  36 O36           -0.6983    -6.2365    -3.9610 O.2     
  37 C37            3.6700    -2.4768    -2.4674 C.3     
  38 H38            2.8070     3.7946     0.3537 H       
  39 H39            4.7192     2.4121    -0.3399 H       
  40 H40            4.9240     1.6854    -2.6825 H       
  41 H41            3.9633     1.7034    -4.9894 H       
  42 H42            2.2054     2.4226    -6.5176 H       
  43 H43            0.3367     3.8055    -5.7216 H       
  44 H44           -1.2607     4.3316    -1.1471 H       
  45 H45           -1.1075     1.8007    -0.5819 H       
  46 H46           -2.0895    -0.3665    -1.1914 H       
  47 H47           -3.4373     1.3005    -4.9100 H       
  48 H48           -2.4614     3.4665    -4.2866 H       
  49 H49           -3.4580    -4.0534    -2.8996 H       
  50 H50           -4.1440    -3.2359    -4.3279 H       
  51 H51           -2.4453    -5.0807    -4.8458 H       
  52 H52           -2.0745    -3.4902    -5.5614 H       
  53 H53            0.5328    -2.9023    -2.8371 H       
  54 H54           -0.1532    -2.0849    -4.2655 H       
  55 H55           -1.1617    -1.0565    -2.3276 H       
  56 H56           -1.5309    -2.6450    -1.6069 H       
  57 H57            1.3360    -7.2311    -2.8883 H       
  58 H58            3.6531    -7.1002    -1.9974 H       
  59 H59            4.7311    -4.8707    -1.8062 H       
  60 H60            4.1231    -2.2097    -3.4222 H       
  61 H61            2.9164    -1.7350    -2.2028 H       
  62 H62            4.4390    -2.5047    -1.6955 H       
@<TRIPOS>BOND
   1    1    2 ar
   2    1   10 ar
   3    2    3 ar
   4    2   38 1
   5    3    4 ar
   6    3   39 1
   7    4    5 ar
   8    4   40 1
   9    5    6 ar
  10    5   10 ar
  11    6    7 ar
  12    6   41 1
  13    7    8 ar
  14    7   42 1
  15    8    9 ar
  16    8   43 1
  17    9   10 ar
  18    9   11 1
  19   11   12 2
  20   11   13 2
  21   11   14 am
  22   14   15 1
  23   14   44 1
  24   15   16 ar
  25   15   20 ar
  26   16   17 ar
  27   16   45 1
  28   17   18 ar
  29   17   46 1
  30   18   19 ar
  31   18   21 1
  32   19   20 ar
  33   19   47 1
  34   20   48 1
  35   21   22 2
  36   21   23 am
  37   23   24 1
  38   23   28 1
  39   24   25 1
  40   24   49 1
  41   24   50 1
  42   25   26 1
  43   25   51 1
  44   25   52 1
  45   26   27 1
  46   26   35 am
  47   27   28 1
  48   27   53 1
  49   27   54 1
  50   28   55 1
  51   28   56 1
  52   29   30 ar
  53   29   34 ar
  54   29   35 1
  55   30   31 ar
  56   30   57 1
  57   31   32 ar
  58   31   58 1
  59   32   33 ar
  60   32   59 1
  61   33   34 ar
  62   33   37 1
  63   35   36 2
  64   37   60 1
  65   37   61 1
  66   37   62 1

#	End of record

