#	Name: ASD03092629
#	Creating user name:	WinNT
#	Creation time:	15. 06. 2019 20:32

#	Modifying user name:	WinNT
#	Modification time:	15. 06. 2019 20:32

#	Program:	/corina/corina34_cracker 3.40 0067  02.08.2006

@<TRIPOS>MOLECULE
ASD03092629
  49   52    0    0    0
SMALL
NO_CHARGES


@<TRIPOS>ATOM
   1 C1             0.2254     1.3845    -1.2312 C.ar    
   2 C2             0.2892    -0.0218    -1.3054 C.ar    
   3 C3             1.2231    -0.7075    -0.4975 C.ar    
   4 C4             2.0402     0.0512     0.3387 C.ar    
   5 C5             1.9091     1.4314     0.3475 C.ar    
   6 N6             1.0314     2.0464    -0.4145 N.ar    
   7 N7            -1.2876     0.6234    -2.7061 N.2     
   8 N8            -0.7589     1.7728    -2.1070 N.pl3   
   9 C9            -0.6776    -0.4329    -2.2479 C.2     
  10 C10            1.3301    -2.1813    -0.5371 C.2     
  11 O11            0.3313    -2.8595    -0.6786 O.2     
  12 N12            2.5349    -2.7730    -0.4164 N.am    
  13 C13            3.5676    -6.2379    -1.0705 C.ar    
  14 C14            3.5080    -4.8633    -1.1692 C.ar    
  15 C15            2.6254    -4.1628    -0.3480 C.ar    
  16 C16            1.8361    -4.8879     0.5436 C.ar    
  17 C17            1.9560    -6.2616     0.5806 C.ar    
  18 N18            2.8036    -6.8884    -0.2134 N.ar    
  19 C19            0.8658    -4.1808     1.4544 C.3     
  20 C20            4.3848    -4.1290    -2.1505 C.3     
  21 C21           -1.1637     3.0900    -2.3568 C.ar    
  22 C22           -1.5623     3.4653    -3.6330 C.ar    
  23 C23           -1.9609     4.7651    -3.8762 C.ar    
  24 C24           -1.9633     5.6924    -2.8504 C.ar    
  25 C25           -1.5670     5.3219    -1.5784 C.ar    
  26 C26           -1.1727     4.0223    -1.3275 C.ar    
  27 C27            2.7945     2.2474     1.2536 C.3     
  28 C28           -0.9627    -1.8567    -2.6508 C.3     
  29 H29            2.7682    -0.4313     0.9739 H       
  30 H30            3.3392    -2.2321    -0.3770 H       
  31 H31            4.2451    -6.7891    -1.7058 H       
  32 H32            1.3488    -6.8314     1.2684 H       
  33 H33           -0.1333    -4.2182     1.0203 H       
  34 H34            0.8576    -4.6715     2.4277 H       
  35 H35            1.1714    -3.1414     1.5741 H       
  36 H36            3.8641    -4.0352    -3.1035 H       
  37 H37            4.6130    -3.1365    -1.7620 H       
  38 H38            5.3115    -4.6842    -2.2959 H       
  39 H39           -1.5602     2.7416    -4.4347 H       
  40 H40           -2.2706     5.0576    -4.8686 H       
  41 H41           -2.2751     6.7083    -3.0431 H       
  42 H42           -1.5700     6.0485    -0.7793 H       
  43 H43           -0.8679     3.7323    -0.3328 H       
  44 H44            3.7084     2.5155     0.7235 H       
  45 H45            2.2695     3.1542     1.5542 H       
  46 H46            3.0459     1.6629     2.1386 H       
  47 H47           -1.6512    -2.3060    -1.9351 H       
  48 H48           -1.4113    -1.8704    -3.6441 H       
  49 H49           -0.0319    -2.4237    -2.6646 H       
@<TRIPOS>BOND
   1    1    2 ar
   2    1    6 ar
   3    1    8 1
   4    2    3 ar
   5    2    9 1
   6    3    4 ar
   7    3   10 1
   8    4    5 ar
   9    4   29 1
  10    5    6 ar
  11    5   27 1
  12    7    8 1
  13    7    9 2
  14    8   21 1
  15    9   28 1
  16   10   11 2
  17   10   12 am
  18   12   15 1
  19   12   30 1
  20   13   14 ar
  21   13   18 ar
  22   13   31 1
  23   14   15 ar
  24   14   20 1
  25   15   16 ar
  26   16   17 ar
  27   16   19 1
  28   17   18 ar
  29   17   32 1
  30   19   33 1
  31   19   34 1
  32   19   35 1
  33   20   36 1
  34   20   37 1
  35   20   38 1
  36   21   22 ar
  37   21   26 ar
  38   22   23 ar
  39   22   39 1
  40   23   24 ar
  41   23   40 1
  42   24   25 ar
  43   24   41 1
  44   25   26 ar
  45   25   42 1
  46   26   43 1
  47   27   44 1
  48   27   45 1
  49   27   46 1
  50   28   47 1
  51   28   48 1
  52   28   49 1

#	End of record

