#	Name: ASD02198325
#	Creating user name:	WinNT
#	Creation time:	15. 06. 2019 20:19

#	Modifying user name:	WinNT
#	Modification time:	15. 06. 2019 20:19

#	Program:	/corina/corina34_cracker 3.40 0067  02.08.2006

@<TRIPOS>MOLECULE
ASD02198325
  35   37    0    0    0
SMALL
NO_CHARGES


@<TRIPOS>ATOM
   1 C1             0.4851     1.5394     0.0812 C.2     
   2 C2             0.6491     0.1676     0.1472 C.2     
   3 S3             2.0662     2.2794     0.3183 S.3     
   4 C4             2.7827     0.7367     0.4794 C.2     
   5 N5             1.8897    -0.2035     0.3605 N.2     
   6 N6            -0.3969    -0.7294     0.0028 N.pl3   
   7 C7            -0.7257     2.2211    -0.1414 C.2     
   8 C8            -0.7722     3.6975    -0.0459 C.ar    
   9 O9            -1.7365     1.5956    -0.4129 O.2     
  10 N10            4.1236     0.5172     0.7038 N.pl3   
  11 C11           -1.7059     4.4186    -0.7910 C.ar    
  12 C12            0.1136     4.3732     0.7940 C.ar    
  13 C13            0.0654     5.7497     0.8795 C.ar    
  14 C14           -0.8586     6.4601     0.1347 C.ar    
  15 C15           -1.7443     5.7955    -0.6970 C.ar    
  16 C16            4.5899    -0.7798     0.9385 C.ar    
  17 C17            5.8930    -1.1182     0.6082 C.ar    
  18 C18            6.3535    -2.4141     0.8446 C.ar    
  19 C19            5.4983    -3.3610     1.4121 C.ar    
  20 C20            4.2027    -3.0137     1.7373 C.ar    
  21 C21            3.7485    -1.7286     1.5085 C.ar    
  22 Cl22          -2.9005     6.6957    -1.6280 Cl      
  23 C23            7.6980    -2.7718     0.5058 C.1     
  24 N24            8.7647    -3.0556     0.2370 N.1     
  25 H25           -1.2972    -0.4036    -0.1530 H       
  26 H26           -0.2290    -1.6832     0.0575 H       
  27 H27            4.7445     1.2624     0.6989 H       
  28 H28           -2.3966     3.9009    -1.4401 H       
  29 H29            0.8354     3.8200     1.3765 H       
  30 H30            0.7505     6.2734     1.5296 H       
  31 H31           -0.8924     7.5373     0.2055 H       
  32 H32            6.5495    -0.3815     0.1692 H       
  33 H33            5.8507    -4.3651     1.5964 H       
  34 H34            3.5430    -3.7475     2.1762 H       
  35 H35            2.7336    -1.4629     1.7650 H       
@<TRIPOS>BOND
   1    1    2 2
   2    1    3 1
   3    1    7 1
   4    2    6 1
   5    2    5 1
   6    3    4 1
   7    4    5 2
   8    4   10 1
   9    6   25 1
  10    6   26 1
  11    7    8 1
  12    7    9 2
  13    8   11 ar
  14    8   12 ar
  15   10   16 1
  16   10   27 1
  17   11   15 ar
  18   11   28 1
  19   12   13 ar
  20   12   29 1
  21   13   14 ar
  22   13   30 1
  23   14   15 ar
  24   14   31 1
  25   15   22 1
  26   16   17 ar
  27   16   21 ar
  28   17   18 ar
  29   17   32 1
  30   18   19 ar
  31   18   23 1
  32   19   20 ar
  33   19   33 1
  34   20   21 ar
  35   20   34 1
  36   21   35 1
  37   23   24 3

#	End of record

