#	Name: ASD01915402
#	Creating user name:	WinNT
#	Creation time:	15. 06. 2019 20:05

#	Modifying user name:	WinNT
#	Modification time:	15. 06. 2019 20:05

#	Program:	/corina/corina34_cracker 3.40 0067  02.08.2006

@<TRIPOS>MOLECULE
ASD01915402
  40   42    0    0    0
SMALL
NO_CHARGES


@<TRIPOS>ATOM
   1 C1            -0.0167     1.3776     0.0096 C.ar    
   2 C2             0.0021    -0.0041     0.0020 C.ar    
   3 N3             1.1443    -0.6632    -0.0120 N.ar    
   4 C4             2.3054    -0.0383    -0.0197 C.ar    
   5 C5             2.3651     1.3426    -0.0133 C.ar    
   6 C6             1.1850     2.0698     0.0019 C.ar    
   7 C7             3.5820    -0.8390    -0.0352 C.3     
   8 C8             3.5852    -1.8018     1.1242 C.2     
   9 O9             2.6436    -1.8345     1.8878 O.2     
  10 C10            4.7299    -2.7013     1.3295 C.ar    
  11 C11            5.8175    -2.6630     0.4469 C.ar    
  12 C12            6.8921    -3.5023     0.6334 C.ar    
  13 C13            6.9064    -4.3965     1.7024 C.ar    
  14 C14            5.8177    -4.4422     2.5955 C.ar    
  15 C15            4.7348    -3.5894     2.4076 C.ar    
  16 C16           -1.2977    -0.7666     0.0103 C.3     
  17 C17            8.0643    -5.2979     1.8988 C.ar    
  18 C18            8.5460    -6.0615     0.8352 C.ar    
  19 C19            9.6254    -6.8997     1.0247 C.ar    
  20 C20           10.2296    -6.9842     2.2665 C.ar    
  21 C21            9.7566    -6.2295     3.3253 C.ar    
  22 C22            8.6819    -5.3829     3.1470 C.ar    
  23 C23            5.8281    -5.3594     3.6953 C.1     
  24 N24            5.8363    -6.0869     4.5677 N.1     
  25 H25           -0.9553     1.9117     0.0170 H       
  26 H26            3.3192     1.8487    -0.0193 H       
  27 H27            1.2010     3.1496     0.0072 H       
  28 H28            3.6505    -1.3956    -0.9699 H       
  29 H29            4.4345    -0.1652     0.0497 H       
  30 H30            5.8123    -1.9722    -0.3833 H       
  31 H31            7.7269    -3.4681    -0.0510 H       
  32 H32            3.8971    -3.6194     3.0886 H       
  33 H33           -1.6209    -0.9449    -1.0153 H       
  34 H34           -1.1560    -1.7208     0.5177 H       
  35 H35           -2.0565    -0.1856     0.5346 H       
  36 H36            8.0747    -5.9970    -0.1344 H       
  37 H37            9.9992    -7.4913     0.2022 H       
  38 H38           11.0738    -7.6423     2.4100 H       
  39 H39           10.2324    -6.3001     4.2923 H       
  40 H40            8.3136    -4.7943     3.9742 H       
@<TRIPOS>BOND
   1    1    2 ar
   2    1    6 ar
   3    1   25 1
   4    2    3 ar
   5    2   16 1
   6    3    4 ar
   7    4    5 ar
   8    4    7 1
   9    5    6 ar
  10    5   26 1
  11    6   27 1
  12    7    8 1
  13    7   28 1
  14    7   29 1
  15    8    9 2
  16    8   10 1
  17   10   11 ar
  18   10   15 ar
  19   11   12 ar
  20   11   30 1
  21   12   13 ar
  22   12   31 1
  23   13   14 ar
  24   13   17 1
  25   14   15 ar
  26   14   23 1
  27   15   32 1
  28   16   33 1
  29   16   34 1
  30   16   35 1
  31   17   18 ar
  32   17   22 ar
  33   18   19 ar
  34   18   36 1
  35   19   20 ar
  36   19   37 1
  37   20   21 ar
  38   20   38 1
  39   21   22 ar
  40   21   39 1
  41   22   40 1
  42   23   24 3

#	End of record

