#	Name: ASD01148014
#	Creating user name:	WinNT
#	Creation time:	15. 06. 2019 19:01

#	Modifying user name:	WinNT
#	Modification time:	15. 06. 2019 19:01

#	Program:	/corina/corina34_cracker 3.40 0067  02.08.2006

@<TRIPOS>MOLECULE
ASD01148014
  36   36    0    0    0
SMALL
NO_CHARGES


@<TRIPOS>ATOM
   1 C1            -0.0184     1.5028     0.0103 C.2     
   2 C2             0.0021    -0.0041     0.0020 C.3     
   3 C3            -0.2550    -0.5098    -1.4189 C.3     
   4 O4             1.0236     2.1234     0.0037 O.2     
   5 N5            -1.1946     2.1607     0.0195 N.am    
   6 O6            -0.3515    -1.9355    -1.4069 O.3     
   7 C7            -0.5922    -2.5126    -2.6919 C.3     
   8 F8            -1.7975    -2.0216    -3.2052 F       
   9 F9             0.4544    -2.1769    -3.5574 F       
  10 C10           -1.2145     3.6256     0.0275 C.3     
  11 C11           -2.6419     4.1085     0.0369 C.ar    
  12 C12           -3.2910     4.3235     1.2383 C.ar    
  13 C13           -4.6004     4.7665     1.2470 C.ar    
  14 C14           -5.2606     4.9949     0.0541 C.ar    
  15 C15           -4.6113     4.7808    -1.1473 C.ar    
  16 C16           -3.3005     4.3419    -1.1559 C.ar    
  17 N17            1.3109    -0.4772     0.4594 N.am    
  18 C18            2.4256    -0.1328    -0.2155 C.2     
  19 O19            2.3450     0.5689    -1.2014 O.2     
  20 C20            3.7720    -0.6195     0.2551 C.3     
  21 H21           -0.7738    -0.3816     0.6680 H       
  22 H22           -1.1871    -0.0857    -1.7924 H       
  23 H23            0.5674    -0.2067    -2.0668 H       
  24 H24           -2.0280     1.6644     0.0207 H       
  25 H25           -0.6522    -3.5968    -2.5977 H       
  26 H26           -0.7014     3.9910     0.9171 H       
  27 H27           -0.7098     4.0007    -0.8628 H       
  28 H28           -2.7751     4.1451     2.1703 H       
  29 H29           -5.1077     4.9338     2.1856 H       
  30 H30           -6.2839     5.3403     0.0609 H       
  31 H31           -5.1273     4.9589    -2.0792 H       
  32 H32           -2.7920     4.1782    -2.0945 H       
  33 H33            1.3754    -1.0384     1.2480 H       
  34 H34            3.6453    -1.2317     1.1479 H       
  35 H35            4.2380    -1.2145    -0.5304 H       
  36 H36            4.4064     0.2357     0.4879 H       
@<TRIPOS>BOND
   1    1    2 1
   2    1    4 2
   3    1    5 am
   4    2    3 1
   5    2   17 1
   6    2   21 1
   7    3    6 1
   8    3   22 1
   9    3   23 1
  10    5   10 1
  11    5   24 1
  12    6    7 1
  13    7    8 1
  14    7    9 1
  15    7   25 1
  16   10   11 1
  17   10   26 1
  18   10   27 1
  19   11   12 ar
  20   11   16 ar
  21   12   13 ar
  22   12   28 1
  23   13   14 ar
  24   13   29 1
  25   14   15 ar
  26   14   30 1
  27   15   16 ar
  28   15   31 1
  29   16   32 1
  30   17   18 am
  31   17   33 1
  32   18   19 2
  33   18   20 1
  34   20   34 1
  35   20   35 1
  36   20   36 1

#	End of record

