#	Name: ASD01230007
#	Creating user name:	WinNT
#	Creation time:	15. 06. 2019 19:11

#	Modifying user name:	WinNT
#	Modification time:	15. 06. 2019 19:11

#	Program:	/corina/corina34_cracker 3.40 0067  02.08.2006

@<TRIPOS>MOLECULE
ASD01230007
  28   29    0    0    0
SMALL
NO_CHARGES


@<TRIPOS>ATOM
   1 C1            -0.0140     1.4888    -0.0018 C.ar    
   2 C2             0.0357     0.1059    -0.0094 C.ar    
   3 C3            -1.1388    -0.6252    -0.0061 C.ar    
   4 C4            -2.3555     0.0234     0.0049 C.ar    
   5 C5            -2.4174     1.4107     0.0276 C.ar    
   6 C6            -1.2306     2.1410     0.0219 C.ar    
   7 S7            -3.8533    -0.9145    -0.0282 S.o2    
   8 N8            -5.0578     0.1962     0.2860 N.am    
   9 C9            -4.8977     1.5194    -0.3501 C.3     
  10 N10           -3.6276     2.0969     0.0829 N.pl3   
  11 O11           -4.0357    -1.3490    -1.3688 O.2     
  12 O12           -3.8091    -1.7974     1.0843 O.2     
  13 Cl13           1.4592     2.4070    -0.0148 Cl      
  14 S14            1.5911    -0.7219    -0.0241 S.o2    
  15 O15            2.3761    -0.1191     0.9956 O.2     
  16 O16            1.3049    -2.1132    -0.0643 O.2     
  17 N17            2.3285    -0.3544    -1.4606 N.am    
  18 C18           -4.8969     1.3605    -1.8719 C.3     
  19 Cl19          -6.4096     0.5273    -2.3899 Cl      
  20 Cl20          -4.8111     2.9866    -2.6459 Cl      
  21 H21           -1.1026    -1.7046    -0.0123 H       
  22 H22           -1.2627     3.2205     0.0283 H       
  23 H23           -5.8167    -0.0141     0.8523 H       
  24 H24           -5.7175     2.1715    -0.0488 H       
  25 H25           -3.6274     3.0041     0.4263 H       
  26 H26            1.8840     0.2241    -2.0999 H       
  27 H27            3.2048    -0.7177    -1.6628 H       
  28 H28           -4.0337     0.7679    -2.1748 H       
@<TRIPOS>BOND
   1    1    2 ar
   2    1   13 1
   3    1    6 ar
   4    2    3 ar
   5    2   14 1
   6    3    4 ar
   7    3   21 1
   8    4    5 ar
   9    4    7 1
  10    5    6 ar
  11    5   10 1
  12    6   22 1
  13    7    8 am
  14    7   11 2
  15    7   12 2
  16    8    9 1
  17    8   23 1
  18    9   10 1
  19    9   18 1
  20    9   24 1
  21   10   25 1
  22   14   15 2
  23   14   16 2
  24   14   17 am
  25   17   26 1
  26   17   27 1
  27   18   19 1
  28   18   20 1
  29   18   28 1

#	End of record

