#	Name: ASD01917067
#	Creating user name:	WinNT
#	Creation time:	15. 06. 2019 20:08

#	Modifying user name:	WinNT
#	Modification time:	15. 06. 2019 20:08

#	Program:	/corina/corina34_cracker 3.40 0067  02.08.2006

@<TRIPOS>MOLECULE
ASD01917067
  55   59    0    0    0
SMALL
NO_CHARGES


@<TRIPOS>ATOM
   1 C1            -0.0175     1.3092     0.0941 C.2     
   2 N2             0.0008     0.0202    -0.1688 N.2     
   3 N3            -1.3348    -0.4134    -0.1795 N.pl3   
   4 C4            -2.0928     0.6760     0.0858 C.2     
   5 N5            -1.2860     1.7023     0.2526 N.2     
   6 C6             1.1765     2.1841     0.2033 C.ar    
   7 C7             1.0259     3.5400     0.4874 C.ar    
   8 C8             2.4513     1.6513     0.0279 C.ar    
   9 C9             3.5600     2.4712     0.1308 C.ar    
  10 C10            3.4030     3.8192     0.4082 C.ar    
  11 C11           -1.8131    -1.7754    -0.4288 C.3     
  12 C12           -1.8488    -2.5408     0.8689 C.2     
  13 N13           -2.2592    -3.8245     0.8831 N.am    
  14 O14           -1.5083    -2.0016     1.9005 O.2     
  15 C15           -2.3017    -4.5896     2.1385 C.3     
  16 C16           -3.6884    -5.2278     2.2728 C.3     
  17 N17           -3.9860    -6.0042     1.0619 N.3     
  18 C18           -4.0483    -5.1393    -0.1238 C.3     
  19 C19           -2.6822    -4.4955    -0.3555 C.3     
  20 C20           -5.1572    -6.7265     1.2111 C.ar    
  21 N21           -5.5798    -7.4870     0.2118 N.ar    
  22 C22           -6.6949    -8.1899     0.3219 C.ar    
  23 C23           -7.4226    -8.1234     1.4997 C.ar    
  24 C24           -6.9519    -7.3180     2.5248 C.ar    
  25 N25           -5.8263    -6.6451     2.3517 N.ar    
  26 C26           -3.5696     0.7067     0.1776 C.ar    
  27 C27            2.1387     4.3501     0.5881 C.ar    
  28 C28           -4.2549     1.9138     0.0398 C.ar    
  29 C29           -5.6318     1.9358     0.1265 C.ar    
  30 C30           -6.3326     0.7641     0.3496 C.ar    
  31 C31           -5.6587    -0.4363     0.4871 C.ar    
  32 C32           -4.2823    -0.4723     0.3967 C.ar    
  33 F33            4.7976     1.9568    -0.0389 F       
  34 H34            0.0395     3.9565     0.6282 H       
  35 H35            2.5736     0.6002    -0.1876 H       
  36 H36            4.2709     4.4569     0.4883 H       
  37 H37           -2.8155    -1.7362    -0.8552 H       
  38 H38           -1.1408    -2.2746    -1.1266 H       
  39 H39           -1.5402    -5.3692     2.1181 H       
  40 H40           -2.1231    -3.9212     2.9808 H       
  41 H41           -3.7027    -5.8874     3.1405 H       
  42 H42           -4.4380    -4.4463     2.3972 H       
  43 H43           -4.3236    -5.7347    -0.9944 H       
  44 H44           -4.7929    -4.3590     0.0339 H       
  45 H45           -2.7530    -3.7667    -1.1629 H       
  46 H46           -1.9545    -5.2643    -0.6152 H       
  47 H47           -7.0345    -8.8077    -0.4963 H       
  48 H48           -8.3367    -8.6867     1.6160 H       
  49 H49           -7.4955    -7.2439     3.4551 H       
  50 H50            2.0217     5.4018     0.8042 H       
  51 H51           -3.7090     2.8293    -0.1340 H       
  52 H52           -6.1636     2.8698     0.0203 H       
  53 H53           -7.4102     0.7865     0.4170 H       
  54 H54           -6.2113    -1.3477     0.6611 H       
  55 H55           -3.7573    -1.4099     0.5041 H       
@<TRIPOS>BOND
   1    1    2 2
   2    1    6 1
   3    1    5 1
   4    2    3 1
   5    3    4 1
   6    3   11 1
   7    4    5 2
   8    4   26 1
   9    6    7 ar
  10    6    8 ar
  11    7   27 ar
  12    7   34 1
  13    8    9 ar
  14    8   35 1
  15    9   10 ar
  16    9   33 1
  17   10   27 ar
  18   10   36 1
  19   11   12 1
  20   11   37 1
  21   11   38 1
  22   12   13 am
  23   12   14 2
  24   13   15 1
  25   13   19 1
  26   15   16 1
  27   15   39 1
  28   15   40 1
  29   16   17 1
  30   16   41 1
  31   16   42 1
  32   17   18 1
  33   17   20 1
  34   18   19 1
  35   18   43 1
  36   18   44 1
  37   19   45 1
  38   19   46 1
  39   20   21 ar
  40   20   25 ar
  41   21   22 ar
  42   22   23 ar
  43   22   47 1
  44   23   24 ar
  45   23   48 1
  46   24   25 ar
  47   24   49 1
  48   26   28 ar
  49   26   32 ar
  50   27   50 1
  51   28   29 ar
  52   28   51 1
  53   29   30 ar
  54   29   52 1
  55   30   31 ar
  56   30   53 1
  57   31   32 ar
  58   31   54 1
  59   32   55 1

#	End of record

