#	Name: ASD00170058
#	Creating user name:	WinNT
#	Creation time:	15. 06. 2019 18:31

#	Modifying user name:	WinNT
#	Modification time:	15. 06. 2019 18:31

#	Program:	/corina/corina34_cracker 3.40 0067  02.08.2006

@<TRIPOS>MOLECULE
ASD00170058
  33   35    0    0    0
SMALL
NO_CHARGES


@<TRIPOS>ATOM
   1 C1             0.0144     1.3185    -0.0547 C.2     
   2 C2             0.0204    -0.0181    -0.0728 C.2     
   3 C3            -1.3168    -0.5800     0.0124 C.2     
   4 C4            -2.3000     0.3732     0.0935 C.2     
   5 S5            -1.6253     1.9359     0.0611 S.3     
   6 N6            -3.6502     0.1027     0.1831 N.pl3   
   7 C7            -1.5875    -2.0172     0.0113 C.2     
   8 C8            -1.8371    -2.7219    -1.2653 C.ar    
   9 O9            -1.6074    -2.6338     1.0611 O.2     
  10 C10           -1.9782    -4.1102    -1.2833 C.ar    
  11 C11           -2.2109    -4.7617    -2.4772 C.ar    
  12 C12           -2.3044    -4.0420    -3.6548 C.ar    
  13 C13           -2.1654    -2.6646    -3.6441 C.ar    
  14 C14           -1.9382    -2.0005    -2.4559 C.ar    
  15 C15            1.2608     2.1798    -0.1308 C.3     
  16 C16            2.4802     1.3110     0.1888 C.3     
  17 C17            2.4277     0.0423    -0.6677 C.3     
  18 C18            1.2885    -0.8512    -0.1709 C.3     
  19 I19           -2.3084    -1.5855    -5.4341 I       
  20 H20           -3.9672    -0.8116     0.1165 H       
  21 H21           -4.2824     0.8269     0.3128 H       
  22 H22           -1.9051    -4.6735    -0.3648 H       
  23 H23           -2.3198    -5.8361    -2.4923 H       
  24 H24           -2.4863    -4.5568    -4.5866 H       
  25 H25           -1.8303    -0.9259    -2.4485 H       
  26 H26            1.3591     2.5924    -1.1349 H       
  27 H27            1.1895     2.9905     0.5944 H       
  28 H28            3.3916     1.8651    -0.0358 H       
  29 H29            2.4678     1.0393     1.2443 H       
  30 H30            2.2521     0.3127    -1.7089 H       
  31 H31            3.3734    -0.4932    -0.5839 H       
  32 H32            1.5404    -1.2525     0.8107 H       
  33 H33            1.1334    -1.6699    -0.8737 H       
@<TRIPOS>BOND
   1    1    2 2
   2    1   15 1
   3    1    5 1
   4    2    3 1
   5    2   18 1
   6    3    4 2
   7    3    7 1
   8    4    5 1
   9    4    6 1
  10    6   20 1
  11    6   21 1
  12    7    8 1
  13    7    9 2
  14    8   10 ar
  15    8   14 ar
  16   10   11 ar
  17   10   22 1
  18   11   12 ar
  19   11   23 1
  20   12   13 ar
  21   12   24 1
  22   13   14 ar
  23   13   19 1
  24   14   25 1
  25   15   16 1
  26   15   26 1
  27   15   27 1
  28   16   17 1
  29   16   28 1
  30   16   29 1
  31   17   18 1
  32   17   30 1
  33   17   31 1
  34   18   32 1
  35   18   33 1

#	End of record

