#	Name: ASD01884297
#	Creating user name:	WinNT
#	Creation time:	15. 06. 2019 19:47

#	Modifying user name:	WinNT
#	Modification time:	15. 06. 2019 19:47

#	Program:	/corina/corina34_cracker 3.40 0067  02.08.2006

@<TRIPOS>MOLECULE
ASD01884297
  45   47    0    0    0
SMALL
NO_CHARGES


@<TRIPOS>ATOM
   1 C1             0.1796     0.7726    -0.3164 C.ar    
   2 C2             0.3427    -0.4721     0.2936 C.ar    
   3 C3             1.5909    -0.8413     0.7972 C.ar    
   4 C4             2.6577     0.0227     0.6910 C.ar    
   5 C5             2.4923     1.2621     0.0828 C.ar    
   6 C6             1.2499     1.6327    -0.4198 C.ar    
   7 O7             3.5452     2.1116    -0.0205 O.3     
   8 B8            -0.8758    -1.4548     0.4136 Du      
   9 C9             4.3416     2.0093    -1.1149 C.ar    
  10 C10            4.0228     1.1348    -2.1507 C.ar    
  11 C11            4.8580     1.0602    -3.2467 C.ar    
  12 N12            5.9455     1.8038    -3.3199 N.ar    
  13 C13            6.2811     2.6439    -2.3590 C.ar    
  14 C14            5.4956     2.7805    -1.2332 C.ar    
  15 C15            7.5352     3.4683    -2.4958 C.3     
  16 O16           -0.8901    -2.7621     1.0044 O.3     
  17 O17           -2.2205    -1.2397    -0.0381 O.3     
  18 C18           -2.6328    -2.5132    -0.5775 C.3     
  19 C19           -1.7281    -3.5484     0.1314 C.3     
  20 C20           -0.8756    -4.3010    -0.8922 C.3     
  21 C21           -2.5757    -4.5287     0.9448 C.3     
  22 C22           -4.1034    -2.7798    -0.2503 C.3     
  23 C23           -2.4068    -2.5497    -2.0903 C.3     
  24 H24           -0.7841     1.0591    -0.7109 H       
  25 H25            1.7198    -1.8038     1.2700 H       
  26 H26            3.6237    -0.2623     1.0808 H       
  27 H27            1.1242     2.5961    -0.8914 H       
  28 H28            3.1343     0.5231    -2.0969 H       
  29 H29            4.6186     0.3846    -4.0546 H       
  30 H30            5.7759     3.4698    -0.4504 H       
  31 H31            7.2987     4.4103    -2.9904 H       
  32 H32            7.9468     3.6704    -1.5069 H       
  33 H33            8.2673     2.9203    -3.0889 H       
  34 H34           -0.2482    -3.5928    -1.4334 H       
  35 H35           -0.2448    -5.0255    -0.3773 H       
  36 H36           -1.5265    -4.8207    -1.5952 H       
  37 H37           -3.2624    -5.0533     0.2805 H       
  38 H38           -1.9241    -5.2505     1.4373 H       
  39 H39           -3.1443    -3.9807     1.6961 H       
  40 H40           -4.7229    -2.0078    -0.7067 H       
  41 H41           -4.3916    -3.7555    -0.6417 H       
  42 H42           -4.2434    -2.7662     0.8306 H       
  43 H43           -1.3526    -2.3741    -2.3045 H       
  44 H44           -2.6986    -3.5259    -2.4777 H       
  45 H45           -3.0082    -1.7753    -2.5663 H       
@<TRIPOS>BOND
   1    1    2 ar
   2    1    6 ar
   3    1   24 1
   4    2    3 ar
   5    2    8 1
   6    3    4 ar
   7    3   25 1
   8    4    5 ar
   9    4   26 1
  10    5    6 ar
  11    5    7 1
  12    6   27 1
  13    7    9 1
  14    8   16 1
  15    8   17 1
  16    9   10 ar
  17    9   14 ar
  18   10   11 ar
  19   10   28 1
  20   11   12 ar
  21   11   29 1
  22   12   13 ar
  23   13   14 ar
  24   13   15 1
  25   14   30 1
  26   15   31 1
  27   15   32 1
  28   15   33 1
  29   16   19 1
  30   17   18 1
  31   18   19 1
  32   18   22 1
  33   18   23 1
  34   19   20 1
  35   19   21 1
  36   20   34 1
  37   20   35 1
  38   20   36 1
  39   21   37 1
  40   21   38 1
  41   21   39 1
  42   22   40 1
  43   22   41 1
  44   22   42 1
  45   23   43 1
  46   23   44 1
  47   23   45 1

#	End of record

