#	Name: ASD04590797
#	Creating user name:	WinNT
#	Creation time:	15. 06. 2019 20:51

#	Modifying user name:	WinNT
#	Modification time:	15. 06. 2019 20:51

#	Program:	/corina/corina34_cracker 3.40 0067  02.08.2006

@<TRIPOS>MOLECULE
ASD04590797
  66   72    0    0    0
SMALL
NO_CHARGES


@<TRIPOS>ATOM
   1 O1             4.3919     4.5497    -1.0487 O.3     
   2 C2             4.5685     5.8830    -0.5632 C.3     
   3 C3             4.6142     5.8762     0.9395 C.2     
   4 N4             4.1963     4.8315     1.6648 N.am    
   5 C5             3.7012     3.5995     1.0548 C.3     
   6 C6             3.3196     3.8563    -0.4029 C.3     
   7 C7             2.0507     4.7091    -0.4610 C.3     
   8 C8             1.6476     4.9162    -1.9230 C.3     
   9 N9             1.4160     3.6121    -2.5572 N.3     
  10 C10            2.6367     2.7959    -2.5567 C.3     
  11 C11            3.0698     2.5249    -1.1138 C.3     
  12 O12            5.0458     6.8524     1.5155 O.2     
  13 C13            0.9192     3.7665    -3.8496 C.ar    
  14 C14            0.6310     2.6437    -4.6271 C.ar    
  15 C15            0.1391     2.8478    -5.9041 C.ar    
  16 C16           -0.0380     4.1634    -6.3349 C.ar    
  17 N17            0.2628     5.1669    -5.5273 N.ar    
  18 N18            0.7143     4.9778    -4.3408 N.ar    
  19 N19           -0.5309     4.4197    -7.6147 N.pl3   
  20 C20           -0.8106     5.7198    -8.0016 C.ar    
  21 N21           -1.1746     5.9492    -9.2529 N.ar    
  22 C22           -1.4512     7.1837    -9.6620 C.ar    
  23 C23           -1.3475     8.2383    -8.7327 C.ar    
  24 C24           -0.9617     7.9482    -7.4278 C.ar    
  25 N25           -0.7093     6.6909    -7.1031 N.ar    
  26 N26           -1.8427     7.7065   -10.8696 N.pl3   
  27 C27           -1.7055     9.4659    -9.4547 C.ar    
  28 C28           -2.0032     9.0781   -10.7737 C.ar    
  29 C29           -2.3775    10.0581   -11.6833 C.ar    
  30 C30           -1.7978    10.8147    -9.1152 C.ar    
  31 C31           -2.1775    11.7184   -10.0854 C.ar    
  32 N32           -2.4506    11.3213   -11.3154 N.ar    
  33 C33           -2.0597     6.9231   -12.0884 C.3     
  34 C34           -0.7615     6.2003   -12.4884 C.3     
  35 C35           -1.0717     4.6894   -12.4601 C.3     
  36 C36           -2.6070     4.6132   -12.6501 C.3     
  37 C37           -3.1135     5.8262   -11.8309 C.3     
  38 H38            5.5020     6.2896    -0.9523 H       
  39 H39            3.7370     6.5034    -0.8976 H       
  40 H40            4.2228     4.8950     2.6323 H       
  41 H41            4.4791     2.8371     1.0961 H       
  42 H42            2.8254     3.2510     1.6023 H       
  43 H43            1.2459     4.2006     0.0698 H       
  44 H44            2.2406     5.6762     0.0046 H       
  45 H45            0.7341     5.5091    -1.9675 H       
  46 H46            2.4460     5.4393    -2.4494 H       
  47 H47            2.4411     1.8496    -3.0610 H       
  48 H48            3.4303     3.3291    -3.0801 H       
  49 H49            3.9862     1.9348    -1.1137 H       
  50 H50            2.2834     1.9771    -0.5946 H       
  51 H51            0.7874     1.6463    -4.2437 H       
  52 H52           -0.1001     2.0144    -6.5481 H       
  53 H53           -0.6777     3.6873    -8.2335 H       
  54 H54           -0.8731     8.7345    -6.6928 H       
  55 H55           -2.6104     9.7827   -12.7012 H       
  56 H56           -1.5765    11.1458    -8.1113 H       
  57 H57           -2.2529    12.7665    -9.8357 H       
  58 H58           -2.3885     7.5752   -12.8975 H       
  59 H59           -0.4608     6.5010   -13.4921 H       
  60 H60            0.0299     6.4324   -11.7758 H       
  61 H61           -0.5605     4.1796   -13.2767 H       
  62 H62           -0.7842     4.2588   -11.5009 H       
  63 H63           -2.8718     4.7198   -13.7021 H       
  64 H64           -3.0008     3.6814   -12.2441 H       
  65 H65           -3.1557     5.5793   -10.7701 H       
  66 H66           -4.0922     6.1461   -12.1884 H       
@<TRIPOS>BOND
   1    1    2 1
   2    1    6 1
   3    2    3 1
   4    2   38 1
   5    2   39 1
   6    3    4 am
   7    3   12 2
   8    4    5 1
   9    4   40 1
  10    5    6 1
  11    5   41 1
  12    5   42 1
  13    6    7 1
  14    6   11 1
  15    7    8 1
  16    7   43 1
  17    7   44 1
  18    8    9 1
  19    8   45 1
  20    8   46 1
  21    9   10 1
  22    9   13 1
  23   10   11 1
  24   10   47 1
  25   10   48 1
  26   11   49 1
  27   11   50 1
  28   13   14 ar
  29   13   18 ar
  30   14   15 ar
  31   14   51 1
  32   15   16 ar
  33   15   52 1
  34   16   17 ar
  35   16   19 1
  36   17   18 ar
  37   19   20 1
  38   19   53 1
  39   20   21 ar
  40   20   25 ar
  41   21   22 ar
  42   22   23 ar
  43   22   26 1
  44   23   24 ar
  45   23   27 1
  46   24   25 ar
  47   24   54 1
  48   26   28 1
  49   26   33 1
  50   27   28 ar
  51   27   30 ar
  52   28   29 ar
  53   29   32 ar
  54   29   55 1
  55   30   31 ar
  56   30   56 1
  57   31   32 ar
  58   31   57 1
  59   33   34 1
  60   33   37 1
  61   33   58 1
  62   34   35 1
  63   34   59 1
  64   34   60 1
  65   35   36 1
  66   35   61 1
  67   35   62 1
  68   36   37 1
  69   36   63 1
  70   36   64 1
  71   37   65 1
  72   37   66 1

#	End of record

