#	Name: ASD01200524
#	Creating user name:	WinNT
#	Creation time:	15. 06. 2019 19:09

#	Modifying user name:	WinNT
#	Modification time:	15. 06. 2019 19:09

#	Program:	/corina/corina34_cracker 3.40 0067  02.08.2006

@<TRIPOS>MOLECULE
ASD01200524
  38   40    0    0    0
SMALL
NO_CHARGES


@<TRIPOS>ATOM
   1 N1             2.2307     1.3387     0.5647 N.ar    
   2 C2             2.2417     0.0209     0.5646 C.ar    
   3 C3             1.2058    -0.6961    -0.0206 C.ar    
   4 C4             0.1516    -0.0017    -0.6089 C.ar    
   5 C5             0.1813     1.3832    -0.5852 C.ar    
   6 C6             1.2474     2.0256     0.0161 C.ar    
   7 N7             1.2214    -2.0945    -0.0195 N.am    
   8 C8             0.0670    -2.7812     0.0900 C.2     
   9 O9            -0.9780    -2.1880     0.2861 O.2     
  10 O10            1.1529    -5.0167    -0.2424 O.3     
  11 C11            0.0694    -4.2404    -0.0267 C.2     
  12 C12           -1.0339    -5.0616     0.0648 C.2     
  13 C13           -0.5769    -6.3718    -0.1043 C.2     
  14 C14            0.7749    -6.3051    -0.2911 C.2     
  15 C15            1.6709    -7.4568    -0.5099 C.ar    
  16 C16            2.5781    -7.4509    -1.5784 C.ar    
  17 C17            3.4148    -8.5373    -1.7749 C.ar    
  18 C18            3.3542    -9.6222    -0.9207 C.ar    
  19 C19            2.4594    -9.6324     0.1355 C.ar    
  20 C20            1.6238    -8.5562     0.3495 C.ar    
  21 N21            4.2508   -10.7800    -1.1368 N.pl3   
  22 O22            5.0391   -10.7749    -2.0652 O.2     
  23 O23            4.2002   -11.7379    -0.3861 O.2     
  24 O24            2.6363    -6.3850    -2.4175 O.3     
  25 C25            3.5853    -6.4498    -3.4839 C.3     
  26 H26            3.0645    -0.5069     1.0239 H       
  27 H27           -0.6685    -0.5297    -1.0724 H       
  28 H28           -0.6190     1.9544    -1.0320 H       
  29 H29            1.2753     3.1050     0.0377 H       
  30 H30            2.0632    -2.5701    -0.0975 H       
  31 H31           -2.0546    -4.7524     0.2347 H       
  32 H32           -1.1791    -7.2683    -0.0896 H       
  33 H33            4.1153    -8.5367    -2.5970 H       
  34 H34            2.4185   -10.4848     0.7975 H       
  35 H35            0.9308    -8.5658     1.1778 H       
  36 H36            4.5889    -6.5528    -3.0713 H       
  37 H37            3.3627    -7.3089    -4.1167 H       
  38 H38            3.5283    -5.5371    -4.0771 H       
@<TRIPOS>BOND
   1    1    2 ar
   2    1    6 ar
   3    2    3 ar
   4    2   26 1
   5    3    4 ar
   6    3    7 1
   7    4    5 ar
   8    4   27 1
   9    5    6 ar
  10    5   28 1
  11    6   29 1
  12    7    8 am
  13    7   30 1
  14    8    9 2
  15    8   11 1
  16   10   11 1
  17   10   14 1
  18   11   12 2
  19   12   13 1
  20   12   31 1
  21   13   14 2
  22   13   32 1
  23   14   15 1
  24   15   16 ar
  25   15   20 ar
  26   16   17 ar
  27   16   24 1
  28   17   18 ar
  29   17   33 1
  30   18   19 ar
  31   18   21 1
  32   19   20 ar
  33   19   34 1
  34   20   35 1
  35   21   22 2
  36   21   23 2
  37   24   25 1
  38   25   36 1
  39   25   37 1
  40   25   38 1

#	End of record

