#	Name: ASD03912078
#	Creating user name:	WinNT
#	Creation time:	15. 06. 2019 20:47

#	Modifying user name:	WinNT
#	Modification time:	15. 06. 2019 20:47

#	Program:	/corina/corina34_cracker 3.40 0067  02.08.2006

@<TRIPOS>MOLECULE
ASD03912078
  25   24    0    0    0
SMALL
NO_CHARGES


@<TRIPOS>ATOM
   1 C1            -0.0184     1.5028     0.0103 C.2     
   2 C2             0.0021    -0.0041     0.0020 C.3     
   3 C3            -0.6130    -0.5153    -1.3023 C.3     
   4 O4             1.0197     2.1211     0.0037 O.2     
   5 O5            -1.1898     2.1580     0.0194 O.3     
   6 O6             1.3516    -0.4627     0.1041 O.3     
   7 P7             1.8732    -1.3912     1.3116 P.3     
   8 O8             1.5721    -0.7354     2.6037 O.2     
   9 O9             1.1324    -2.8193     1.2490 O.3     
  10 O10            3.4632    -1.6050     1.1759 O.3     
  11 O11            0.0701     0.0699    -2.4126 O.3     
  12 P12           -0.3147    -0.2450    -3.9439 P.3     
  13 O13           -1.7510     0.0388    -4.1600 O.2     
  14 C14            0.6852     0.8041    -5.0498 C.3     
  15 O15           -0.0199    -1.7952    -4.2634 O.3     
  16 H16           -0.5743    -0.3799     0.8474 H       
  17 H17           -0.5181    -1.6002    -1.3480 H       
  18 H18           -1.6673    -0.2410    -1.3388 H       
  19 H19           -1.1523     3.1243     0.0245 H       
  20 H20            1.2858    -3.3063     0.4278 H       
  21 H21            3.8468    -2.1561     1.8718 H       
  22 H22            1.7430     0.5951    -4.8906 H       
  23 H23            0.4247     0.5909    -6.0865 H       
  24 H24            0.4856     1.8536    -4.8335 H       
  25 H25           -0.2290    -2.0565    -5.1706 H       
@<TRIPOS>BOND
   1    1    2 1
   2    1    4 2
   3    1    5 1
   4    2    3 1
   5    2    6 1
   6    2   16 1
   7    3   11 1
   8    3   17 1
   9    3   18 1
  10    5   19 1
  11    6    7 1
  12    7    8 2
  13    7    9 1
  14    7   10 1
  15    9   20 1
  16   10   21 1
  17   11   12 1
  18   12   13 2
  19   12   14 1
  20   12   15 1
  21   14   22 1
  22   14   23 1
  23   14   24 1
  24   15   25 1

#	End of record

