#	Name: ASD09116320
#	Creating user name:	WinNT
#	Creation time:	15. 06. 2019 21:21

#	Modifying user name:	WinNT
#	Modification time:	15. 06. 2019 21:21

#	Program:	/corina/corina34_cracker 3.40 0067  02.08.2006

@<TRIPOS>MOLECULE
ASD09116320
  68   73    0    0    0
SMALL
NO_CHARGES


@<TRIPOS>ATOM
   1 N1            -0.0296     1.4182     0.1445 N.2     
   2 N2            -0.0208     0.0192     0.2649 N.pl3   
   3 C3             1.2224     1.8077     0.1152 C.2     
   4 N4             2.0155     0.7341     0.2104 N.2     
   5 C5             1.2801    -0.3533     0.3015 C.2     
   6 N6             1.7524    -1.6471     0.4152 N.pl3   
   7 C7            -1.1338    -0.8215     0.3339 C.ar    
   8 N8             1.6573     3.1283     0.0026 N.pl3   
   9 C9             3.0216     3.4264     0.0969 C.ar    
  10 C10            3.5419     4.5219    -0.5803 C.ar    
  11 C11            3.8544     2.6305     0.8720 C.ar    
  12 C12            5.2012     2.9248     0.9655 C.ar    
  13 C13            5.7221     4.0147     0.2859 C.ar    
  14 C14            4.8894     4.8154    -0.4860 C.ar    
  15 N15           -1.0321    -2.0870    -0.0429 N.ar    
  16 N16           -2.0266    -2.9014    -0.0077 N.ar    
  17 C17           -3.2215    -2.5181     0.4101 C.ar    
  18 C18           -3.4179    -1.2009     0.8458 C.ar    
  19 C19           -2.3538    -0.3287     0.8061 C.ar    
  20 C20           -4.3860    -3.4300     0.4127 C.ar    
  21 C21           -5.5954    -2.9871    -0.1477 C.ar    
  22 N22           -5.6520    -1.7317    -0.7429 N.3     
  23 C23           -5.7534    -0.6303     0.2129 C.3     
  24 C24           -4.7682    -0.7941     1.3653 C.3     
  25 C25           -4.3030    -4.7041     0.9608 C.ar    
  26 C26           -5.4170    -5.5209     0.9704 C.ar    
  27 C27           -6.6146    -5.0749     0.4393 C.ar    
  28 C28           -6.7071    -3.8134    -0.1178 C.ar    
  29 O29            7.0482     4.3037     0.3792 O.3     
  30 C30            9.2970     3.9214     1.1774 C.3     
  31 C31            7.8443     3.4417     1.1948 C.3     
  32 C32           -6.7326    -1.6681    -1.7360 C.3     
  33 F33            5.3976     5.8774    -1.1487 F       
  34 N34            9.3835     5.2443     1.8101 N.3     
  35 C35           10.7885     5.6355     2.0270 C.3     
  36 C36           11.0035     6.9846     1.3093 C.3     
  37 C37            9.5660     7.5592     1.2073 C.3     
  38 C38            8.7315     6.2750     0.9744 C.3     
  39 H39            2.7076    -1.8148     0.4331 H       
  40 H40            1.1287    -2.3874     0.4771 H       
  41 H41            1.0141     3.8401    -0.1410 H       
  42 H42            2.8941     5.1437    -1.1804 H       
  43 H43            3.4493     1.7812     1.4022 H       
  44 H44            5.8483     2.3055     1.5689 H       
  45 H45           -2.4593     0.6991     1.1206 H       
  46 H46           -5.5460     0.3078    -0.3020 H       
  47 H47           -6.7669    -0.5985     0.6129 H       
  48 H48           -5.1369    -1.5588     2.0489 H       
  49 H49           -4.6789     0.1513     1.9004 H       
  50 H50           -3.3705    -5.0548     1.3777 H       
  51 H51           -5.3529    -6.5124     1.3939 H       
  52 H52           -7.4827    -5.7171     0.4600 H       
  53 H53           -7.6455    -3.4719    -0.5292 H       
  54 H54            9.9196     3.2148     1.7262 H       
  55 H55            9.6453     3.9882     0.1467 H       
  56 H56            7.4680     3.4597     2.2176 H       
  57 H57            7.7929     2.4245     0.8066 H       
  58 H58           -7.6773    -1.9355    -1.2626 H       
  59 H59           -6.7999    -0.6562    -2.1354 H       
  60 H60           -6.5223    -2.3655    -2.5469 H       
  61 H61           10.9816     5.7481     3.0938 H       
  62 H62           11.4527     4.8812     1.6053 H       
  63 H63           11.6394     7.6405     1.9040 H       
  64 H64           11.4280     6.8301     0.3174 H       
  65 H65            9.2752     8.0508     2.1357 H       
  66 H66            9.4772     8.2412     0.3618 H       
  67 H67            8.7632     5.9873    -0.0764 H       
  68 H68            7.7014     6.4284     1.2959 H       
@<TRIPOS>BOND
   1    1    2 1
   2    1    3 2
   3    2    7 1
   4    2    5 1
   5    3    4 1
   6    3    8 1
   7    4    5 2
   8    5    6 1
   9    6   39 1
  10    6   40 1
  11    7   15 ar
  12    7   19 ar
  13    8    9 1
  14    8   41 1
  15    9   10 ar
  16    9   11 ar
  17   10   14 ar
  18   10   42 1
  19   11   12 ar
  20   11   43 1
  21   12   13 ar
  22   12   44 1
  23   13   14 ar
  24   13   29 1
  25   14   33 1
  26   15   16 ar
  27   16   17 ar
  28   17   18 ar
  29   17   20 1
  30   18   19 ar
  31   18   24 1
  32   19   45 1
  33   20   21 ar
  34   20   25 ar
  35   21   22 1
  36   21   28 ar
  37   22   23 1
  38   22   32 1
  39   23   24 1
  40   23   46 1
  41   23   47 1
  42   24   48 1
  43   24   49 1
  44   25   26 ar
  45   25   50 1
  46   26   27 ar
  47   26   51 1
  48   27   28 ar
  49   27   52 1
  50   28   53 1
  51   29   31 1
  52   30   31 1
  53   30   34 1
  54   30   54 1
  55   30   55 1
  56   31   56 1
  57   31   57 1
  58   32   58 1
  59   32   59 1
  60   32   60 1
  61   34   35 1
  62   34   38 1
  63   35   36 1
  64   35   61 1
  65   35   62 1
  66   36   37 1
  67   36   63 1
  68   36   64 1
  69   37   38 1
  70   37   65 1
  71   37   66 1
  72   38   67 1
  73   38   68 1

#	End of record

