#	Name: ASD01870211
#	Creating user name:	WinNT
#	Creation time:	15. 06. 2019 19:38

#	Modifying user name:	WinNT
#	Modification time:	15. 06. 2019 19:38

#	Program:	/corina/corina34_cracker 3.40 0067  02.08.2006

@<TRIPOS>MOLECULE
ASD01870211
  48   52    0    0    0
SMALL
NO_CHARGES


@<TRIPOS>ATOM
   1 C1            -0.0168     1.3890     0.0097 C.ar    
   2 C2             0.0021    -0.0041     0.0020 C.ar    
   3 C3             1.1787    -0.6895    -0.0124 C.ar    
   4 C4             2.3941     0.0134    -0.0202 C.ar    
   5 C5             2.3756     1.4326    -0.0129 C.ar    
   6 C6             1.1407     2.1050     0.0025 C.ar    
   7 C7             3.6272    -0.6639    -0.0356 C.ar    
   8 C8             4.7900     0.0348    -0.0429 C.ar    
   9 C9             4.7884     1.4437    -0.0354 C.ar    
  10 C10            3.5863     2.1337    -0.0212 C.ar    
  11 C11            5.8879     2.4281    -0.0398 C.2     
  12 N12            5.3953     3.6786    -0.0283 N.am    
  13 C13            3.9299     3.6020    -0.0159 C.3     
  14 C14            6.1505     4.8524    -0.0282 C.ar    
  15 C15            6.5489     5.4476     1.1703 C.ar    
  16 C16            7.2953     6.6088     1.1263 C.ar    
  17 N17            7.6308     7.1535    -0.0284 N.ar    
  18 C18            7.2731     6.6205    -1.1810 C.ar    
  19 C19            6.5313     5.4575    -1.2238 C.ar    
  20 C20            3.6564    -2.1706    -0.0434 C.3     
  21 C21            3.5286    -2.6682    -1.4601 C.ar    
  22 C22            4.6548    -2.8749    -2.2312 C.ar    
  23 N23            4.5539    -3.3104    -3.4728 N.ar    
  24 C24            3.3797    -3.5647    -4.0256 C.ar    
  25 C25            2.2046    -3.3792    -3.3084 C.ar    
  26 C26            2.2773    -2.9289    -2.0019 C.ar    
  27 O27            7.0708     2.1478    -0.0520 O.2     
  28 F28            6.2088     4.8960     2.3557 F       
  29 O29            3.3223    -4.0107    -5.3057 O.3     
  30 C30            4.5652    -4.1806    -5.9899 C.3     
  31 H31           -0.9637     1.9083     0.0170 H       
  32 H32           -0.9306    -0.5486     0.0080 H       
  33 H33            1.1770    -1.7695    -0.0175 H       
  34 H34            1.1109     3.1846     0.0078 H       
  35 H35            5.7302    -0.4964    -0.0544 H       
  36 H36            3.5217     4.0858    -0.9033 H       
  37 H37            3.5374     4.0756     0.8840 H       
  38 H38            7.6080     7.0772     2.0479 H       
  39 H39            7.5685     7.0983    -2.1034 H       
  40 H40            6.2422     5.0273    -2.1713 H       
  41 H41            4.5988    -2.5179     0.3801 H       
  42 H42            2.8275    -2.5531     0.5523 H       
  43 H43            5.6308    -2.6775    -1.8131 H       
  44 H44            1.2473    -3.5875    -3.7629 H       
  45 H45            1.3805    -2.7758    -1.4198 H       
  46 H46            5.0883    -3.2254    -6.0357 H       
  47 H47            5.1786    -4.9054    -5.4545 H       
  48 H48            4.3770    -4.5407    -7.0014 H       
@<TRIPOS>BOND
   1    1    2 ar
   2    1    6 ar
   3    1   31 1
   4    2    3 ar
   5    2   32 1
   6    3    4 ar
   7    3   33 1
   8    4    5 ar
   9    4    7 ar
  10    5    6 ar
  11    5   10 ar
  12    6   34 1
  13    7    8 ar
  14    7   20 1
  15    8    9 ar
  16    8   35 1
  17    9   10 ar
  18    9   11 1
  19   10   13 1
  20   11   12 am
  21   11   27 2
  22   12   13 1
  23   12   14 1
  24   13   36 1
  25   13   37 1
  26   14   15 ar
  27   14   19 ar
  28   15   16 ar
  29   15   28 1
  30   16   17 ar
  31   16   38 1
  32   17   18 ar
  33   18   19 ar
  34   18   39 1
  35   19   40 1
  36   20   21 1
  37   20   41 1
  38   20   42 1
  39   21   22 ar
  40   21   26 ar
  41   22   23 ar
  42   22   43 1
  43   23   24 ar
  44   24   25 ar
  45   24   29 1
  46   25   26 ar
  47   25   44 1
  48   26   45 1
  49   29   30 1
  50   30   46 1
  51   30   47 1
  52   30   48 1

#	End of record

