#	Name: ASD03451015
#	Creating user name:	WinNT
#	Creation time:	15. 06. 2019 20:42

#	Modifying user name:	WinNT
#	Modification time:	15. 06. 2019 20:42

#	Program:	/corina/corina34_cracker 3.40 0067  02.08.2006

@<TRIPOS>MOLECULE
ASD03451015
  37   40    0    0    0
SMALL
NO_CHARGES


@<TRIPOS>ATOM
   1 C1            -0.0015     1.6149     0.0514 C.ar    
   2 C2            -0.0341     0.2331    -0.0134 C.ar    
   3 C3             1.1559    -0.4692    -0.0581 C.ar    
   4 C4             2.3644     0.2429    -0.0365 C.ar    
   5 C5             2.3221     1.6417     0.0233 C.ar    
   6 N6             1.1395     2.2664     0.0679 N.ar    
   7 C7             3.6176    -0.5258    -0.0726 C.2     
   8 N8             4.6692    -0.2331     0.6231 N.2     
   9 C9             4.6937     0.9305     1.5098 C.3     
  10 C10            4.5149     2.1739     0.6841 C.2     
  11 N11            3.4335     2.4191     0.0330 N.2     
  12 C12            3.6798    -1.7025    -0.9551 C.2     
  13 C13            3.5737     0.8248     2.5125 C.2     
  14 S14            2.6770     2.1837     3.1780 S.3     
  15 C15            1.6941     1.0972     4.1510 C.2     
  16 C16            2.0730    -0.1634     3.9348 C.2     
  17 C17            3.1070    -0.3140     3.0268 C.2     
  18 C18            4.7533    -2.5275    -1.1149 C.2     
  19 C19            4.3729    -3.5106    -2.0449 C.2     
  20 C20            3.0998    -3.2436    -2.4058 C.2     
  21 O21            2.6834    -2.1556    -1.7419 O.3     
  22 N22            5.5367     3.0750     0.6239 N.pl3   
  23 C23            5.3907     4.2957    -0.1729 C.3     
  24 H24           -0.9290     2.1672     0.0845 H       
  25 H25           -0.9784    -0.2908    -0.0285 H       
  26 H26            1.1552    -1.5480    -0.1084 H       
  27 H27            5.6502     0.9725     2.0308 H       
  28 H28            0.9048     1.4037     4.8214 H       
  29 H29            1.6059    -1.0031     4.4278 H       
  30 H30            3.5099    -1.2799     2.7603 H       
  31 H31            5.7108    -2.4420    -0.6227 H       
  32 H32            4.9842    -4.3256    -2.4034 H       
  33 H33            2.5122    -3.8146    -3.1094 H       
  34 H34            6.3601     2.9077     1.1085 H       
  35 H35            6.3028     4.8882    -0.1002 H       
  36 H36            5.2119     4.0303    -1.2148 H       
  37 H37            4.5490     4.8769     0.2037 H       
@<TRIPOS>BOND
   1    1    2 ar
   2    1    6 ar
   3    1   24 1
   4    2    3 ar
   5    2   25 1
   6    3    4 ar
   7    3   26 1
   8    4    5 ar
   9    4    7 1
  10    5    6 ar
  11    5   11 1
  12    7    8 2
  13    7   12 1
  14    8    9 1
  15    9   10 1
  16    9   13 1
  17    9   27 1
  18   10   11 2
  19   10   22 1
  20   12   18 2
  21   12   21 1
  22   13   14 1
  23   13   17 2
  24   14   15 1
  25   15   16 2
  26   15   28 1
  27   16   17 1
  28   16   29 1
  29   17   30 1
  30   18   19 1
  31   18   31 1
  32   19   20 2
  33   19   32 1
  34   20   21 1
  35   20   33 1
  36   22   23 1
  37   22   34 1
  38   23   35 1
  39   23   36 1
  40   23   37 1

#	End of record

