#	Name: ASD03200084
#	Creating user name:	WinNT
#	Creation time:	15. 06. 2019 20:34

#	Modifying user name:	WinNT
#	Modification time:	15. 06. 2019 20:34

#	Program:	/corina/corina34_cracker 3.40 0067  02.08.2006

@<TRIPOS>MOLECULE
ASD03200084
  24   25    0    0    0
SMALL
NO_CHARGES


@<TRIPOS>ATOM
   1 C1            -0.0158     1.3153     0.0093 C.ar    
   2 C2             0.8276    -2.9486     1.1801 C.ar    
   3 C3             2.0792    -3.5356     1.1618 C.ar    
   4 C4             2.6947    -3.8171    -0.0438 C.ar    
   5 C5             0.1864    -2.6471    -0.0135 C.ar    
   6 C6             0.8044    -2.9361    -1.2224 C.ar    
   7 C7             2.0610    -3.5127    -1.2343 C.ar    
   8 C8            -1.1130    -0.7144     0.0093 C.ar    
   9 C9            -2.3537    -0.0901     0.0245 C.ar    
  10 C10           -2.4133     1.2919     0.0436 C.ar    
  11 Cl11           0.0558    -2.5950     2.6944 Cl      
  12 Cl12           0.0095    -2.5543    -2.7177 Cl      
  13 O13           -1.0445    -2.0704     0.0013 O.3     
  14 N14            0.0021    -0.0041     0.0020 N.ar    
  15 C15           -1.2173     2.0077     0.0302 C.ar    
  16 N16           -1.2289     3.4073     0.0383 N.pl3   
  17 H17            0.9155     1.8621     0.0033 H       
  18 H18            2.5768    -3.7742     2.0902 H       
  19 H19            3.6728    -4.2750    -0.0556 H       
  20 H20            2.5425    -3.7375    -2.1746 H       
  21 H21           -3.2607    -0.6764     0.0300 H       
  22 H22           -3.3640     1.8041     0.0554 H       
  23 H23           -0.3929     3.8993     0.0292 H       
  24 H24           -2.0728     3.8853     0.0530 H       
@<TRIPOS>BOND
   1    1   14 ar
   2    1   17 1
   3    1   15 ar
   4    2    3 ar
   5    2   11 1
   6    2    5 ar
   7    3   18 1
   8    3    4 ar
   9    4   19 1
  10    4    7 ar
  11    5    6 ar
  12    5   13 1
  13    6    7 ar
  14    6   12 1
  15    7   20 1
  16    8   13 1
  17    8    9 ar
  18    8   14 ar
  19    9   21 1
  20    9   10 ar
  21   10   22 1
  22   10   15 ar
  23   15   16 1
  24   16   23 1
  25   16   24 1

#	End of record

