#	Name: ASD03930034
#	Creating user name:	WinNT
#	Creation time:	15. 06. 2019 20:47

#	Modifying user name:	WinNT
#	Modification time:	15. 06. 2019 20:47

#	Program:	/corina/corina34_cracker 3.40 0067  02.08.2006

@<TRIPOS>MOLECULE
ASD03930034
  24   26    0    0    0
SMALL
NO_CHARGES


@<TRIPOS>ATOM
   1 C1            -0.0166     1.3733     0.0096 C.ar    
   2 C2             0.0021    -0.0041     0.0020 C.ar    
   3 C3            -1.1761    -0.7409    -0.0023 C.ar    
   4 C4            -2.3876    -0.1110     0.0023 C.ar    
   5 C5            -2.4134     1.3003     0.0339 C.ar    
   6 C6            -1.2454     2.0452     0.0308 C.ar    
   7 C7            -3.6682    -0.8945    -0.0570 C.3     
   8 N8            -4.7808    -0.2279     0.6254 N.am    
   9 S9            -5.2017     1.3223     0.1584 S.o2    
  10 C10           -3.6196     2.1413     0.0983 C.2     
  11 S11           -1.6442     3.7572     0.0443 S.3     
  12 C12           -3.3677     3.4287     0.0987 C.2     
  13 O13           -5.6832     1.2419    -1.1761 O.2     
  14 O14           -5.9323     1.8998     1.2317 O.2     
  15 C15           -5.5120    -0.9076     1.6977 C.3     
  16 Cl16          -1.1072    -2.4755    -0.0141 Cl      
  17 Cl17           1.4705     2.2689     0.0002 Cl      
  18 H18            0.9503    -0.5211    -0.0010 H       
  19 H19           -3.9383    -1.0465    -1.1020 H       
  20 H20           -3.5056    -1.8679     0.4059 H       
  21 H21           -4.1289     4.1942     0.1309 H       
  22 H22           -5.0381    -0.6903     2.6549 H       
  23 H23           -6.5432    -0.5549     1.7144 H       
  24 H24           -5.4986    -1.9831     1.5215 H       
@<TRIPOS>BOND
   1    1    2 ar
   2    1   17 1
   3    1    6 ar
   4    2    3 ar
   5    2   18 1
   6    3    4 ar
   7    3   16 1
   8    4    5 ar
   9    4    7 1
  10    5    6 ar
  11    5   10 1
  12    6   11 1
  13    7    8 1
  14    7   19 1
  15    7   20 1
  16    8    9 am
  17    8   15 1
  18    9   10 1
  19    9   13 2
  20    9   14 2
  21   10   12 2
  22   11   12 1
  23   12   21 1
  24   15   22 1
  25   15   23 1
  26   15   24 1

#	End of record

