#	Name: ASD06620013
#	Creating user name:	WinNT
#	Creation time:	15. 06. 2019 21:07

#	Modifying user name:	WinNT
#	Modification time:	15. 06. 2019 21:07

#	Program:	/corina/corina34_cracker 3.40 0067  02.08.2006

@<TRIPOS>MOLECULE
ASD06620013
  37   41    0    0    0
SMALL
NO_CHARGES


@<TRIPOS>ATOM
   1 C1            -0.0506     1.3729     0.4587 C.ar    
   2 C2            -0.0102     0.0127     0.2071 C.ar    
   3 C3             1.2327    -0.6244     0.1111 C.ar    
   4 C4             2.3832     0.1371     0.2728 C.ar    
   5 C5             2.2565     1.4892     0.5214 C.ar    
   6 N6             1.0679     2.0582     0.6058 N.ar    
   7 C7            -0.3528    -2.1427    -0.1988 C.2     
   8 N8            -0.9777    -0.9673     0.0081 N.am    
   9 N9             0.9812    -1.9636    -0.1418 N.am    
  10 O10           -0.9089    -3.2051    -0.4052 O.2     
  11 C11           -2.4275    -0.7571     0.0217 C.3     
  12 C12           -3.4423    -0.1962     3.4538 C.2     
  13 C13           -3.6784     0.4461     4.6856 C.2     
  14 N14           -3.7761    -1.5232     3.3248 N.pl3   
  15 N15           -4.2077    -0.2274     5.6786 N.2     
  16 C16           -4.5310    -1.5166     5.5502 C.2     
  17 C17           -4.3254    -2.1783     4.3918 C.2     
  18 N18           -2.9299     0.2097     2.3037 N.2     
  19 C19           -2.9291    -0.8079     1.4419 C.2     
  20 C20           -3.4510    -1.8965     2.0577 C.2     
  21 I21           -3.7055    -3.7985     1.2172 I       
  22 C22            1.9942    -3.0072    -0.3181 C.3     
  23 C23            1.9727    -4.1848     0.6585 C.3     
  24 C24            1.5170    -4.3826    -0.7886 C.3     
  25 H25           -1.0027     1.8775     0.5308 H       
  26 H26            3.3592    -0.3204     0.2057 H       
  27 H27            3.1440     2.0913     0.6493 H       
  28 H28           -2.6575     0.2168    -0.4103 H       
  29 H29           -2.9134    -1.5380    -0.5634 H       
  30 H30           -3.4242     1.4881     4.8115 H       
  31 H31           -4.9653    -2.0399     6.3892 H       
  32 H32           -4.5941    -3.2210     4.3079 H       
  33 H33            2.9666    -2.6637    -0.6710 H       
  34 H34            2.9309    -4.6162     0.9478 H       
  35 H35            1.2049    -4.1830     1.4322 H       
  36 H36            0.4494    -4.5110    -0.9670 H       
  37 H37            2.1754    -4.9442    -1.4513 H       
@<TRIPOS>BOND
   1    1    2 ar
   2    1    6 ar
   3    1   25 1
   4    2    3 ar
   5    2    8 1
   6    3    4 ar
   7    3    9 1
   8    4    5 ar
   9    4   26 1
  10    5    6 ar
  11    5   27 1
  12    7    8 am
  13    7    9 am
  14    7   10 2
  15    8   11 1
  16    9   22 1
  17   11   19 1
  18   11   28 1
  19   11   29 1
  20   12   13 1
  21   12   14 1
  22   12   18 2
  23   13   15 2
  24   13   30 1
  25   14   17 1
  26   14   20 1
  27   15   16 1
  28   16   17 2
  29   16   31 1
  30   17   32 1
  31   18   19 1
  32   19   20 2
  33   20   21 1
  34   22   23 1
  35   22   24 1
  36   22   33 1
  37   23   24 1
  38   23   34 1
  39   23   35 1
  40   24   36 1
  41   24   37 1

#	End of record

