#	Name: ASD03090077
#	Creating user name:	WinNT
#	Creation time:	15. 06. 2019 20:28

#	Modifying user name:	WinNT
#	Modification time:	15. 06. 2019 20:28

#	Program:	/corina/corina34_cracker 3.40 0067  02.08.2006

@<TRIPOS>MOLECULE
ASD03090077
  45   47    0    0    0
SMALL
NO_CHARGES


@<TRIPOS>ATOM
   1 C1            -0.5872     0.8593    -0.1892 C.2     
   2 C2            -0.8146    -0.5905    -0.3361 C.ar    
   3 C3             0.2725    -1.4684    -0.3885 C.ar    
   4 C4             0.0580    -2.8155    -0.5246 C.ar    
   5 C5            -1.2414    -3.3101    -0.6107 C.ar    
   6 C6            -2.3263    -2.4380    -0.5588 C.ar    
   7 C7            -2.1180    -1.0903    -0.4174 C.ar    
   8 O8             0.5466     1.2922    -0.1135 O.2     
   9 N9            -1.6358     1.7048    -0.1444 N.am    
  10 S10           -1.5131    -5.0422    -0.7862 S.3     
  11 C11           -3.3216    -5.1669    -0.8515 C.3     
  12 F12           -3.8005    -4.4342    -1.9429 F       
  13 F13           -3.6918    -6.5087    -0.9922 F       
  14 F14           -3.8675    -4.6540     0.3301 F       
  15 C15           -1.4098     3.1449     0.0015 C.3     
  16 C16           -2.7353     3.8615     0.0243 C.ar    
  17 C17           -3.3833     4.0754     1.2253 C.ar    
  18 C18           -4.6049     4.7360     1.2454 C.ar    
  19 C19           -5.1709     5.1795     0.0566 C.ar    
  20 C20           -4.5177     4.9624    -1.1404 C.ar    
  21 C21           -3.2987     4.3092    -1.1563 C.ar    
  22 N22           -5.2631     4.9536     2.4580 N.3     
  23 C23           -6.7236     4.8344     2.2952 C.3     
  24 C24           -7.2072     3.7533     3.2847 C.3     
  25 C25           -6.0795     3.7249     4.3498 C.3     
  26 C26           -4.8226     3.9821     3.4817 C.3     
  27 H27            1.2802    -1.0854    -0.3221 H       
  28 H28            0.8973    -3.4940    -0.5655 H       
  29 H29           -3.3326    -2.8242    -0.6262 H       
  30 H30           -2.9597    -0.4150    -0.3731 H       
  31 H31           -2.5401     1.3598    -0.2088 H       
  32 H32           -0.8771     3.3365     0.9329 H       
  33 H33           -0.8158     3.5063    -0.8378 H       
  34 H34           -2.9408     3.7291     2.1475 H       
  35 H35           -6.1208     5.6932     0.0687 H       
  36 H36           -4.9572     5.3069    -2.0649 H       
  37 H37           -2.7877     4.1449    -2.0934 H       
  38 H38           -7.2013     5.7870     2.5243 H       
  39 H39           -6.9597     4.5347     1.2741 H       
  40 H40           -8.1566     4.0411     3.7362 H       
  41 H41           -7.2926     2.7868     2.7880 H       
  42 H42           -6.2160     4.5188     5.0841 H       
  43 H43           -6.0258     2.7507     4.8357 H       
  44 H44           -4.4918     3.0571     3.0095 H       
  45 H45           -4.0227     4.4066     4.0884 H       
@<TRIPOS>BOND
   1    1    2 1
   2    1    8 2
   3    1    9 am
   4    2    3 ar
   5    2    7 ar
   6    3    4 ar
   7    3   27 1
   8    4    5 ar
   9    4   28 1
  10    5    6 ar
  11    5   10 1
  12    6    7 ar
  13    6   29 1
  14    7   30 1
  15    9   15 1
  16    9   31 1
  17   10   11 1
  18   11   12 1
  19   11   13 1
  20   11   14 1
  21   15   16 1
  22   15   32 1
  23   15   33 1
  24   16   17 ar
  25   16   21 ar
  26   17   18 ar
  27   17   34 1
  28   18   19 ar
  29   18   22 1
  30   19   20 ar
  31   19   35 1
  32   20   21 ar
  33   20   36 1
  34   21   37 1
  35   22   23 1
  36   22   26 1
  37   23   24 1
  38   23   38 1
  39   23   39 1
  40   24   25 1
  41   24   40 1
  42   24   41 1
  43   25   26 1
  44   25   42 1
  45   25   43 1
  46   26   44 1
  47   26   45 1

#	End of record

