#	Name: ASD01940272
#	Creating user name:	WinNT
#	Creation time:	15. 06. 2019 20:12

#	Modifying user name:	WinNT
#	Modification time:	15. 06. 2019 20:12

#	Program:	/corina/corina34_cracker 3.40 0067  02.08.2006

@<TRIPOS>MOLECULE
ASD01940272
  39   41    0    0    0
SMALL
NO_CHARGES


@<TRIPOS>ATOM
   1 C1            -0.3434     1.7142    -0.2981 C.3     
   2 C2            -0.4452     0.1884    -0.3468 C.3     
   3 C3             0.9214     0.8595    -0.1955 C.3     
   4 S4            -0.6178     2.6218    -1.8446 S.o2    
   5 O5             0.3766     2.2865    -2.8027 O.2     
   6 O6            -1.9968     2.6169    -2.1876 O.2     
   7 N7            -0.2983     4.2004    -1.4596 N.am    
   8 C8             0.9754     4.5665    -1.0043 C.ar    
   9 C9             1.1119     5.5592    -0.0347 C.ar    
  10 C10            2.3760     5.9179     0.4126 C.ar    
  11 C11            3.4975     5.2890    -0.1052 C.ar    
  12 C12            3.3594     4.3040    -1.0676 C.ar    
  13 C13            2.1019     3.9384    -1.5130 C.ar    
  14 N14           -0.0243     6.1935     0.4865 N.pl3   
  15 C15            0.1011     7.4160     1.1505 C.ar    
  16 C16            0.3216     8.5818     0.4272 C.ar    
  17 C17            0.4452     9.7886     1.0866 C.ar    
  18 C18            0.3497     9.8379     2.4660 C.ar    
  19 C19            0.1307     8.6791     3.1890 C.ar    
  20 C20           -0.0000     7.4697     2.5350 C.ar    
  21 C21            0.4263     8.5290    -1.0752 C.3     
  22 I22            0.5379    11.6714     3.4619 I       
  23 F23            4.7278     5.6386     0.3299 F       
  24 F24            2.5132     6.8795     1.3516 F       
  25 H25           -0.6886     2.2130     0.6075 H       
  26 H26           -0.8573    -0.3166     0.5268 H       
  27 H27           -0.6770    -0.2701    -1.3081 H       
  28 H28            1.5887     0.8425    -1.0572 H       
  29 H29            1.4084     0.7960     0.7777 H       
  30 H30           -0.9928     4.8716    -1.5493 H       
  31 H31            4.2356     3.8165    -1.4689 H       
  32 H32            1.9977     3.1662    -2.2608 H       
  33 H33           -0.8977     5.7834     0.3861 H       
  34 H34            0.6170    10.6950     0.5250 H       
  35 H35            0.0569     8.7209     4.2657 H       
  36 H36           -0.1761     6.5661     3.0996 H       
  37 H37           -0.5631     8.6611    -1.5132 H       
  38 H38            1.0862     9.3243    -1.4217 H       
  39 H39            0.8314     7.5632    -1.3775 H       
@<TRIPOS>BOND
   1    1    2 1
   2    1    3 1
   3    1    4 1
   4    1   25 1
   5    2    3 1
   6    2   26 1
   7    2   27 1
   8    3   28 1
   9    3   29 1
  10    4    5 2
  11    4    6 2
  12    4    7 am
  13    7    8 1
  14    7   30 1
  15    8    9 ar
  16    8   13 ar
  17    9   10 ar
  18    9   14 1
  19   10   11 ar
  20   10   24 1
  21   11   12 ar
  22   11   23 1
  23   12   13 ar
  24   12   31 1
  25   13   32 1
  26   14   15 1
  27   14   33 1
  28   15   16 ar
  29   15   20 ar
  30   16   17 ar
  31   16   21 1
  32   17   18 ar
  33   17   34 1
  34   18   19 ar
  35   18   22 1
  36   19   20 ar
  37   19   35 1
  38   20   36 1
  39   21   37 1
  40   21   38 1
  41   21   39 1

#	End of record

