#	Name: ASD07300140
#	Creating user name:	WinNT
#	Creation time:	15. 06. 2019 21:09

#	Modifying user name:	WinNT
#	Modification time:	15. 06. 2019 21:09

#	Program:	/corina/corina34_cracker 3.40 0067  02.08.2006

@<TRIPOS>MOLECULE
ASD07300140
  48   52    0    0    0
SMALL
NO_CHARGES


@<TRIPOS>ATOM
   1 C1             0.1850     1.5146     0.0659 C.ar    
   2 C2             0.2593     0.1209     0.1445 C.ar    
   3 C3             1.4969    -0.5000     0.0593 C.ar    
   4 C4             2.6208     0.2966    -0.1019 C.ar    
   5 C5             2.4736     1.6696    -0.1719 C.ar    
   6 N6             1.2847     2.2340    -0.0881 N.ar    
   7 C7            -1.8704     0.7148     0.3291 C.2     
   8 N8            -1.1593     1.8485     0.1850 N.am    
   9 N9            -1.0418    -0.3466     0.3035 N.am    
  10 O10           -3.0788     0.6573     0.4590 O.2     
  11 O11           -3.2363     6.9738     0.0846 O.3     
  12 C12           -3.5723     4.6256     0.2644 C.ar    
  13 C13           -3.0542     3.3460     0.2893 C.ar    
  14 C14           -1.6862     3.1485     0.1593 C.ar    
  15 C15           -0.8396     4.2378     0.0043 C.ar    
  16 C16           -1.3585     5.5172    -0.0205 C.ar    
  17 C17           -2.7258     5.7141     0.1095 C.ar    
  18 C18           -4.5886     7.1141     0.0522 C.2     
  19 C19           -5.2663     8.2845     0.1531 C.2     
  20 C20           -1.4405    -1.7507     0.4296 C.3     
  21 C21           -2.1453    -1.9622     1.7711 C.3     
  22 C22           -2.3939    -2.1144    -0.7104 C.3     
  23 N23           -5.4736     6.1220    -0.0902 N.2     
  24 C24           -6.7005     6.6268    -0.0781 C.2     
  25 N25           -6.6015     7.9852     0.0737 N.pl3   
  26 C26           -7.9712     6.0292    -0.1898 C.2     
  27 C27           -9.0830     6.8125    -0.1419 C.2     
  28 C28           -8.9489     8.2012     0.0176 C.2     
  29 C29           -7.7239     8.7595     0.1190 C.2     
  30 H30            1.5831    -1.5750     0.1174 H       
  31 H31            3.6012    -0.1510    -0.1717 H       
  32 H32            3.3479     2.2910    -0.2974 H       
  33 H33           -4.6369     4.7790     0.3611 H       
  34 H34           -3.7130     2.4988     0.4103 H       
  35 H35            0.2247     4.0847    -0.0965 H       
  36 H36           -0.6999     6.3647    -0.1407 H       
  37 H37           -4.8351     9.2674     0.2733 H       
  38 H38           -0.5558    -2.3855     0.3799 H       
  39 H39           -3.0300    -1.3274     1.8207 H       
  40 H40           -2.4419    -3.0068     1.8649 H       
  41 H41           -1.4661    -1.7030     2.5832 H       
  42 H42           -1.8918    -1.9638    -1.6660 H       
  43 H43           -2.6906    -3.1591    -0.6165 H       
  44 H44           -3.2786    -1.4797    -0.6607 H       
  45 H45           -8.0622     4.9601    -0.3125 H       
  46 H46          -10.0637     6.3683    -0.2265 H       
  47 H47           -9.8292     8.8256     0.0557 H       
  48 H48           -7.6317     9.8286     0.2414 H       
@<TRIPOS>BOND
   1    1    2 ar
   2    1    6 ar
   3    1    8 1
   4    2    3 ar
   5    2    9 1
   6    3    4 ar
   7    3   30 1
   8    4    5 ar
   9    4   31 1
  10    5    6 ar
  11    5   32 1
  12    7    8 am
  13    7    9 am
  14    7   10 2
  15    8   14 1
  16    9   20 1
  17   11   17 1
  18   11   18 1
  19   12   13 ar
  20   12   17 ar
  21   12   33 1
  22   13   14 ar
  23   13   34 1
  24   14   15 ar
  25   15   16 ar
  26   15   35 1
  27   16   17 ar
  28   16   36 1
  29   18   19 2
  30   18   23 1
  31   19   25 1
  32   19   37 1
  33   20   21 1
  34   20   22 1
  35   20   38 1
  36   21   39 1
  37   21   40 1
  38   21   41 1
  39   22   42 1
  40   22   43 1
  41   22   44 1
  42   23   24 2
  43   24   25 1
  44   24   26 1
  45   25   29 1
  46   26   27 2
  47   26   45 1
  48   27   28 1
  49   27   46 1
  50   28   29 2
  51   28   47 1
  52   29   48 1

#	End of record

