#	Name: ASD09740470
#	Creating user name:	WinNT
#	Creation time:	15. 06. 2019 21:23

#	Modifying user name:	WinNT
#	Modification time:	15. 06. 2019 21:23

#	Program:	/corina/corina34_cracker 3.40 0067  02.08.2006

@<TRIPOS>MOLECULE
ASD09740470
  60   63    0    0    0
SMALL
NO_CHARGES


@<TRIPOS>ATOM
   1 N1            -1.1530     0.6746    -0.3488 N.2     
   2 C2            -1.0226    -0.5961    -0.0594 C.2     
   3 C3            -0.1826     1.4692     0.0068 C.2     
   4 S4             1.0716     0.5298     0.8114 S.3     
   5 C5             0.1175    -0.9343     0.5816 C.2     
   6 C6            -0.1410     2.9273    -0.2286 C.ar    
   7 C7            -1.1984     3.5581    -0.8789 C.ar    
   8 C8             0.9577     3.6749     0.2069 C.ar    
   9 C9             1.0016     5.0349    -0.0096 C.ar    
  10 C10           -0.0443     5.6732    -0.6614 C.ar    
  11 C11           -1.1537     4.9342    -1.0983 C.ar    
  12 O12            0.0039     7.0126    -0.8715 O.3     
  13 C13            1.2117     7.6834    -0.5064 C.3     
  14 C14            1.3539     8.9633    -1.3326 C.3     
  15 C15            1.1681     8.0388     0.9811 C.3     
  16 C16           -2.2344     5.5901    -1.7712 C.1     
  17 N17           -3.0916     6.1105    -2.3049 N.1     
  18 C18            0.4982    -2.2949     1.0152 C.ar    
  19 C19            1.7606    -2.8041     0.6953 C.ar    
  20 C20            2.1098    -4.0745     1.1034 C.ar    
  21 C21            1.2092    -4.8407     1.8278 C.ar    
  22 C22           -0.0402    -4.3423     2.1456 C.ar    
  23 C23           -0.3991    -3.0705     1.7491 C.ar    
  24 C24            2.9050    -2.1787    -0.0727 C.3     
  25 C25            4.1428    -3.0290     0.2841 C.3     
  26 C26            3.5147    -4.3938     0.6381 C.3     
  27 N27            3.4746    -5.2571    -0.5448 N.am    
  28 S28            4.3438    -6.6664    -0.5712 S.o2    
  29 O29            4.0472    -7.2374    -1.8382 O.2     
  30 O30            5.6668    -6.2684    -0.2386 O.2     
  31 C31            3.6258    -7.6660     0.7613 C.3     
  32 C32            4.2614    -9.0578     0.7540 C.3     
  33 C33            3.6649    -9.8883     1.8610 C.2     
  34 O34            4.0741   -11.1532     2.0462 O.3     
  35 O35            2.8183    -9.4155     2.5819 O.2     
  36 H36           -1.7768    -1.3252    -0.3158 H       
  37 H37           -2.0499     2.9834    -1.2124 H       
  38 H38            1.7748     3.1844     0.7151 H       
  39 H39            1.8529     5.6065     0.3295 H       
  40 H40            2.0627     7.0302    -0.6991 H       
  41 H41            0.5029     9.6166    -1.1399 H       
  42 H42            2.2751     9.4750    -1.0542 H       
  43 H43            1.3849     8.7101    -2.3923 H       
  44 H44            1.0668     7.1270     1.5697 H       
  45 H45            2.0893     8.5505     1.2595 H       
  46 H46            0.3171     8.6921     1.1738 H       
  47 H47            1.4861    -5.8350     2.1458 H       
  48 H48           -0.7345    -4.9473     2.7099 H       
  49 H49           -1.3753    -2.6807     1.9973 H       
  50 H50            2.7109    -2.2241    -1.1443 H       
  51 H51            3.0521    -1.1456     0.2424 H       
  52 H52            4.8105    -3.1201    -0.5726 H       
  53 H53            4.6670    -2.6092     1.1426 H       
  54 H54            4.0784    -4.8733     1.4384 H       
  55 H55            2.9389    -5.0032    -1.3126 H       
  56 H56            3.8170    -7.1844     1.7203 H       
  57 H57            2.5504    -7.7569     0.6083 H       
  58 H58            4.0702    -9.5394    -0.2049 H       
  59 H59            5.3368    -8.9669     0.9070 H       
  60 H60            3.6625   -11.6464     2.7690 H       
@<TRIPOS>BOND
   1    1    2 1
   2    1    3 2
   3    2    5 2
   4    2   36 1
   5    3    4 1
   6    3    6 1
   7    4    5 1
   8    5   18 1
   9    6    7 ar
  10    6    8 ar
  11    7   11 ar
  12    7   37 1
  13    8    9 ar
  14    8   38 1
  15    9   10 ar
  16    9   39 1
  17   10   11 ar
  18   10   12 1
  19   11   16 1
  20   12   13 1
  21   13   14 1
  22   13   15 1
  23   13   40 1
  24   14   41 1
  25   14   42 1
  26   14   43 1
  27   15   44 1
  28   15   45 1
  29   15   46 1
  30   16   17 3
  31   18   19 ar
  32   18   23 ar
  33   19   20 ar
  34   19   24 1
  35   20   21 ar
  36   20   26 1
  37   21   22 ar
  38   21   47 1
  39   22   23 ar
  40   22   48 1
  41   23   49 1
  42   24   25 1
  43   24   50 1
  44   24   51 1
  45   25   26 1
  46   25   52 1
  47   25   53 1
  48   26   27 1
  49   26   54 1
  50   27   28 am
  51   27   55 1
  52   28   29 2
  53   28   30 2
  54   28   31 1
  55   31   32 1
  56   31   56 1
  57   31   57 1
  58   32   33 1
  59   32   58 1
  60   32   59 1
  61   33   34 1
  62   33   35 2
  63   34   60 1

#	End of record

