#	Name: ASD09750009
#	Creating user name:	WinNT
#	Creation time:	15. 06. 2019 21:23

#	Modifying user name:	WinNT
#	Modification time:	15. 06. 2019 21:23

#	Program:	/corina/corina34_cracker 3.40 0067  02.08.2006

@<TRIPOS>MOLECULE
ASD09750009
  96   99    0    0    0
SMALL
NO_CHARGES


@<TRIPOS>ATOM
   1 C1            -0.0168     1.3899     0.0097 C.ar    
   2 C2             0.0021    -0.0041     0.0020 C.ar    
   3 C3            -1.1843    -0.7113     0.0091 C.ar    
   4 C4            -2.4036    -0.0250     0.0244 C.ar    
   5 C5            -2.4143     1.3741     0.0325 C.ar    
   6 C6            -1.2261     2.0716     0.0307 C.ar    
   7 O7             1.1514     2.0831     0.0023 O.3     
   8 C8             1.0597     3.5091     0.0108 C.3     
   9 C9             1.1338    -2.0957    -0.0200 C.3     
  10 O10            1.1890    -0.6678    -0.0129 O.3     
  11 C11            2.4664     4.1108     0.0006 C.3     
  12 C12            2.3681     5.6376     0.0097 C.3     
  13 C13            3.7748     6.2392    -0.0005 C.3     
  14 C14            3.6766     7.7661     0.0087 C.3     
  15 C15            5.0833     8.3677    -0.0015 C.3     
  16 C16           -3.6702    -0.7721     0.0315 C.2     
  17 N17           -4.8057    -0.1305     0.0458 N.2     
  18 C18           -5.9830    -0.8249     0.0524 C.ar    
  19 C19           -7.0126    -0.4482     0.9202 C.ar    
  20 C20           -8.1974    -1.1481     0.9259 C.ar    
  21 C21           -8.3714    -2.2341     0.0662 C.ar    
  22 C22           -7.3441    -2.6111    -0.8006 C.ar    
  23 C23           -6.1608    -1.9089    -0.8126 C.ar    
  24 C24           -9.6468    -2.9872     0.0741 C.ar    
  25 C25           -9.8208    -4.0732    -0.7856 C.ar    
  26 C26          -11.0055    -4.7734    -0.7795 C.ar    
  27 C27          -12.0349    -4.3970     0.0885 C.ar    
  28 C28          -11.8592    -3.3094     0.9495 C.ar    
  29 C29          -10.6718    -2.6140     0.9453 C.ar    
  30 N30          -13.2121    -5.0914     0.0952 N.2     
  31 C31          -13.7632    -5.4299     1.2278 C.2     
  32 C32          -15.0298    -6.1770     1.2350 C.ar    
  33 C33          -15.6458    -6.5260     0.0281 C.ar    
  34 C34          -16.8318    -7.2256     0.0402 C.ar    
  35 C35          -17.4172    -7.5846     1.2484 C.ar    
  36 C36          -16.8093    -7.2403     2.4502 C.ar    
  37 C37          -15.6203    -6.5464     2.4489 C.ar    
  38 O38          -18.5870    -8.2736     1.2550 O.3     
  39 C39          -19.1580    -8.5947    -0.0150 C.3     
  40 C40          -17.0318    -9.0581     4.1221 C.3     
  41 C41          -17.4499    -7.6324     3.7567 C.3     
  42 C42          -20.4631    -9.3657     0.1929 C.3     
  43 C43          -21.0744    -9.7096    -1.1669 C.3     
  44 C44          -22.3795   -10.4805    -0.9591 C.3     
  45 C45          -22.9908   -10.8244    -2.3188 C.3     
  46 C46          -24.2959   -11.5954    -2.1110 C.3     
  47 H47           -1.1709    -1.7912     0.0024 H       
  48 H48           -3.3535     1.9070     0.0440 H       
  49 H49           -1.2355     3.1515     0.0373 H       
  50 H50            0.5151     3.8435    -0.8723 H       
  51 H51            0.5321     3.8339     0.9076 H       
  52 H52            0.6149    -2.4437     0.8731 H       
  53 H53            0.5979    -2.4341    -0.9068 H       
  54 H54            2.1466    -2.4984    -0.0319 H       
  55 H55            3.0109     3.7764     0.8836 H       
  56 H56            2.9939     3.7860    -0.8962 H       
  57 H57            1.8235     5.9719    -0.8733 H       
  58 H58            1.8405     5.9624     0.9065 H       
  59 H59            4.3194     5.9049     0.8826 H       
  60 H60            4.3024     5.9145    -0.8973 H       
  61 H61            3.1320     8.1004    -0.8744 H       
  62 H62            3.1490     8.0908     0.9055 H       
  63 H63            5.6278     8.0334     0.8815 H       
  64 H64            5.6109     8.0429    -0.8984 H       
  65 H65            5.0133     9.4554     0.0050 H       
  66 H66           -3.6602    -1.8520     0.0249 H       
  67 H67           -6.8780     0.3915     1.5859 H       
  68 H68           -8.9928    -0.8574     1.5961 H       
  69 H69           -7.4799    -3.4514    -1.4653 H       
  70 H70           -5.3662    -2.2008    -1.4833 H       
  71 H71           -9.0255    -4.3637    -1.4561 H       
  72 H72          -11.1401    -5.6131    -1.4453 H       
  73 H73          -12.6537    -3.0177     1.6204 H       
  74 H74          -10.5357    -1.7742     1.6105 H       
  75 H75          -13.2894    -5.1615     2.1604 H       
  76 H76          -15.1920    -6.2468    -0.9113 H       
  77 H77          -17.3081    -7.4954    -0.8908 H       
  78 H78          -15.1487    -6.2794     3.3831 H       
  79 H79          -19.3624    -7.6757    -0.5643 H       
  80 H80          -18.4593    -9.2094    -0.5825 H       
  81 H81          -15.9473    -9.1047     4.2208 H       
  82 H82          -17.4952    -9.3418     5.0671 H       
  83 H83          -17.3551    -9.7436     3.3387 H       
  84 H84          -17.1266    -6.9469     4.5401 H       
  85 H85          -18.5344    -7.5859     3.6580 H       
  86 H86          -20.2587   -10.2847     0.7422 H       
  87 H87          -21.1618    -8.7510     0.7603 H       
  88 H88          -21.2788    -8.7906    -1.7162 H       
  89 H89          -20.3757   -10.3243    -1.7344 H       
  90 H90          -22.1751   -11.3995    -0.4098 H       
  91 H91          -23.0782    -9.8658    -0.3916 H       
  92 H92          -23.1952    -9.9054    -2.8682 H       
  93 H93          -22.2921   -11.4391    -2.8863 H       
  94 H94          -24.0914   -12.5144    -1.5617 H       
  95 H95          -24.9946   -10.9807    -1.5435 H       
  96 H96          -24.7314   -11.8404    -3.0797 H       
@<TRIPOS>BOND
   1    1    2 ar
   2    1    7 1
   3    1    6 ar
   4    2    3 ar
   5    2   10 1
   6    3    4 ar
   7    3   47 1
   8    4    5 ar
   9    4   16 1
  10    5    6 ar
  11    5   48 1
  12    6   49 1
  13    7    8 1
  14    8   11 1
  15    8   50 1
  16    8   51 1
  17    9   10 1
  18    9   52 1
  19    9   53 1
  20    9   54 1
  21   11   12 1
  22   11   55 1
  23   11   56 1
  24   12   13 1
  25   12   57 1
  26   12   58 1
  27   13   14 1
  28   13   59 1
  29   13   60 1
  30   14   15 1
  31   14   61 1
  32   14   62 1
  33   15   63 1
  34   15   64 1
  35   15   65 1
  36   16   17 2
  37   16   66 1
  38   17   18 1
  39   18   19 ar
  40   18   23 ar
  41   19   20 ar
  42   19   67 1
  43   20   21 ar
  44   20   68 1
  45   21   22 ar
  46   21   24 1
  47   22   23 ar
  48   22   69 1
  49   23   70 1
  50   24   25 ar
  51   24   29 ar
  52   25   26 ar
  53   25   71 1
  54   26   27 ar
  55   26   72 1
  56   27   28 ar
  57   27   30 1
  58   28   29 ar
  59   28   73 1
  60   29   74 1
  61   30   31 2
  62   31   32 1
  63   31   75 1
  64   32   33 ar
  65   32   37 ar
  66   33   34 ar
  67   33   76 1
  68   34   35 ar
  69   34   77 1
  70   35   36 ar
  71   35   38 1
  72   36   37 ar
  73   36   41 1
  74   37   78 1
  75   38   39 1
  76   39   42 1
  77   39   79 1
  78   39   80 1
  79   40   41 1
  80   40   81 1
  81   40   82 1
  82   40   83 1
  83   41   84 1
  84   41   85 1
  85   42   43 1
  86   42   86 1
  87   42   87 1
  88   43   44 1
  89   43   88 1
  90   43   89 1
  91   44   45 1
  92   44   90 1
  93   44   91 1
  94   45   46 1
  95   45   92 1
  96   45   93 1
  97   46   94 1
  98   46   95 1
  99   46   96 1

#	End of record

