#	Name: ASD01914156
#	Creating user name:	WinNT
#	Creation time:	15. 06. 2019 20:02

#	Modifying user name:	WinNT
#	Modification time:	15. 06. 2019 20:02

#	Program:	/corina/corina34_cracker 3.40 0067  02.08.2006

@<TRIPOS>MOLECULE
ASD01914156
  51   54    0    0    0
SMALL
NO_CHARGES


@<TRIPOS>ATOM
   1 C1            -0.0178     1.4644     0.0101 C.2     
   2 C2             0.0021    -0.0041     0.0020 C.2     
   3 N3            -1.0492    -0.8107     0.0077 N.2     
   4 C4            -0.5472    -2.0543    -0.0037 C.2     
   5 N5             0.7499    -1.9569    -0.0156 N.2     
   6 O6             1.0899    -0.7927    -0.0185 O.3     
   7 C7            -1.3427    -3.3342    -0.0026 C.3     
   8 C8            -1.0121    -4.1423    -1.2595 C.3     
   9 C9            -1.8438    -5.4268    -1.2756 C.3     
  10 C10           -1.4908    -6.2743    -0.0492 C.3     
  11 N11           -1.6679    -5.4559     1.1580 N.am    
  12 C12           -0.9841    -4.1580     1.2382 C.3     
  13 C13           -2.4430    -5.8875     2.1726 C.2     
  14 C14           -2.6115    -5.0525     3.3812 C.ar    
  15 O15           -3.0035    -6.9632     2.0942 O.2     
  16 C16            1.0756     2.2856     0.0041 C.2     
  17 C17            0.6053     3.6044     0.0156 C.2     
  18 C18           -0.7473     3.5608     0.0283 C.2     
  19 N19           -1.1393     2.2598     0.0191 N.pl3   
  20 C20            1.4538     4.8499     0.0147 C.3     
  21 C21           -1.9322    -4.3793     5.5828 C.ar    
  22 N22           -2.9191    -3.5052     5.6276 N.ar    
  23 C23           -3.7683    -3.3546     4.6271 C.ar    
  24 C24           -3.6489    -4.1180     3.4707 C.ar    
  25 C25           -1.7395    -5.1792     4.4722 C.ar    
  26 F26           -0.7253    -6.0712     4.4383 F       
  27 C27           -0.0355    -6.7364    -0.1467 C.3     
  28 F28           -4.5200    -3.9594     2.4503 F       
  29 O29           -4.7666    -2.4396     4.7266 O.3     
  30 C30           -4.8339    -1.6820     5.9364 C.3     
  31 H31           -2.4073    -3.1008     0.0103 H       
  32 H32           -1.2434    -3.5488    -2.1440 H       
  33 H33            0.0480    -4.3960    -1.2597 H       
  34 H34           -2.9038    -5.1743    -1.2504 H       
  35 H35           -1.6251    -5.9905    -2.1825 H       
  36 H36           -2.1494    -7.1416    -0.0026 H       
  37 H37            0.0940    -4.3146     1.2738 H       
  38 H38           -1.3083    -3.6289     2.1343 H       
  39 H39            2.1098     1.9746    -0.0072 H       
  40 H40           -1.4053     4.4171     0.0395 H       
  41 H41           -2.0567     1.9449     0.0248 H       
  42 H42            1.6489     5.1558    -1.0131 H       
  43 H43            0.9276     5.6484     0.5378 H       
  44 H44            2.3986     4.6463     0.5187 H       
  45 H45           -1.2616    -4.4677     6.4248 H       
  46 H46            0.6200    -5.8665    -0.1868 H       
  47 H47            0.2136    -7.3392     0.7266 H       
  48 H48            0.0966    -7.3328    -1.0495 H       
  49 H49           -4.9704    -2.3574     6.7810 H       
  50 H50           -3.9084    -1.1209     6.0657 H       
  51 H51           -5.6743    -0.9897     5.8853 H       
@<TRIPOS>BOND
   1    1    2 1
   2    1   16 2
   3    1   19 1
   4    2    3 2
   5    2    6 1
   6    3    4 1
   7    4    5 2
   8    4    7 1
   9    5    6 1
  10    7    8 1
  11    7   12 1
  12    7   31 1
  13    8    9 1
  14    8   32 1
  15    8   33 1
  16    9   10 1
  17    9   34 1
  18    9   35 1
  19   10   11 1
  20   10   27 1
  21   10   36 1
  22   11   12 1
  23   11   13 am
  24   12   37 1
  25   12   38 1
  26   13   14 1
  27   13   15 2
  28   14   25 ar
  29   14   24 ar
  30   16   17 1
  31   16   39 1
  32   17   18 2
  33   17   20 1
  34   18   19 1
  35   18   40 1
  36   19   41 1
  37   20   42 1
  38   20   43 1
  39   20   44 1
  40   21   22 ar
  41   21   25 ar
  42   21   45 1
  43   22   23 ar
  44   23   24 ar
  45   23   29 1
  46   24   28 1
  47   25   26 1
  48   27   46 1
  49   27   47 1
  50   27   48 1
  51   29   30 1
  52   30   49 1
  53   30   50 1
  54   30   51 1

#	End of record

