#	Name: ASD01238021
#	Creating user name:	WinNT
#	Creation time:	15. 06. 2019 19:15

#	Modifying user name:	WinNT
#	Modification time:	15. 06. 2019 19:15

#	Program:	/corina/corina34_cracker 3.40 0067  02.08.2006

@<TRIPOS>MOLECULE
ASD01238021
  57   60    0    0    0
SMALL
NO_CHARGES


@<TRIPOS>ATOM
   1 S1            -0.0145     1.6260    -0.8021 S.o2    
   2 N2            -0.0491    -0.0400    -0.8599 N.am    
   3 C3             0.8163    -0.7246     0.1205 C.3     
   4 C4             2.2702    -0.4233    -0.2022 C.3     
   5 C5             2.5992     1.0399    -0.2311 C.ar    
   6 C6             1.6794     2.0314    -0.4984 C.ar    
   7 C7             3.9186     1.4039     0.0244 C.ar    
   8 C8             4.3026     2.7275    -0.0016 C.ar    
   9 C9             3.3756     3.7131    -0.2844 C.ar    
  10 C10            2.0630     3.3602    -0.5312 C.ar    
  11 O11           -0.3187     2.0883    -2.1110 O.2     
  12 O12           -0.7425     2.0115     0.3557 O.2     
  13 S13            3.8640     5.4054    -0.3292 S.o2    
  14 O14            2.7113     6.1459    -0.7064 O.2     
  15 O15            4.5844     5.6471     0.8716 O.2     
  16 N16            4.9510     5.5693    -1.5677 N.am    
  17 C17            4.4944     5.7365    -2.9557 C.3     
  18 C18            5.1979     6.9585    -3.5558 C.3     
  19 N19            6.6505     6.8121    -3.3932 N.3     
  20 C20            7.0273     6.7808    -1.9737 C.3     
  21 C21            6.3987     5.5577    -1.3080 C.3     
  22 C22            7.3699     7.8766    -4.1055 C.3     
  23 C23            5.7354     3.1007     0.2792 C.3     
  24 C24            0.5783    -2.2341     0.0466 C.3     
  25 C25           -0.8936    -2.5518     0.3635 C.3     
  26 C26           -1.4753    -3.2403    -0.8884 C.3     
  27 C27           -0.2370    -3.8324    -1.6062 C.3     
  28 C28            0.8396    -2.7407    -1.3869 C.3     
  29 H29           -0.5999    -0.5257    -1.4937 H       
  30 H30            0.5842    -0.3669     1.1236 H       
  31 H31            2.8991    -0.9057     0.5461 H       
  32 H32            2.5054    -0.8513    -1.1767 H       
  33 H33            4.6496     0.6404     0.2460 H       
  34 H34            1.3329     4.1251    -0.7508 H       
  35 H35            4.7472     4.8478    -3.5340 H       
  36 H36            3.4155     5.8914    -2.9701 H       
  37 H37            4.9563     7.0331    -4.6161 H       
  38 H38            4.8633     7.8596    -3.0419 H       
  39 H39            8.1125     6.7265    -1.8865 H       
  40 H40            6.6673     7.6844    -1.4818 H       
  41 H41            6.5783     5.5944    -0.2335 H       
  42 H42            6.8381     4.6514    -1.7248 H       
  43 H43            7.0698     8.8464    -3.7086 H       
  44 H44            8.4431     7.7443    -3.9685 H       
  45 H45            7.1306     7.8289    -5.1678 H       
  46 H46            6.3135     3.0421    -0.6430 H       
  47 H47            5.7761     4.1176     0.6696 H       
  48 H48            6.1528     2.4124     1.0141 H       
  49 H49            1.2315    -2.7498     0.7505 H       
  50 H50           -0.9546    -3.2223     1.2207 H       
  51 H51           -1.4383    -1.6305     0.5700 H       
  52 H52           -2.1655    -4.0337    -0.6015 H       
  53 H53           -1.9744    -2.5117    -1.5273 H       
  54 H54            0.0654    -4.7717    -1.1432 H       
  55 H55           -0.4360    -3.9708    -2.6689 H       
  56 H56            0.7144    -1.9314    -2.1063 H       
  57 H57            1.8388    -3.1694    -1.4638 H       
@<TRIPOS>BOND
   1    1    2 am
   2    1    6 1
   3    1   11 2
   4    1   12 2
   5    2    3 1
   6    2   29 1
   7    3    4 1
   8    3   24 1
   9    3   30 1
  10    4    5 1
  11    4   31 1
  12    4   32 1
  13    5    6 ar
  14    5    7 ar
  15    6   10 ar
  16    7    8 ar
  17    7   33 1
  18    8    9 ar
  19    8   23 1
  20    9   10 ar
  21    9   13 1
  22   10   34 1
  23   13   14 2
  24   13   15 2
  25   13   16 am
  26   16   17 1
  27   16   21 1
  28   17   18 1
  29   17   35 1
  30   17   36 1
  31   18   19 1
  32   18   37 1
  33   18   38 1
  34   19   20 1
  35   19   22 1
  36   20   21 1
  37   20   39 1
  38   20   40 1
  39   21   41 1
  40   21   42 1
  41   22   43 1
  42   22   44 1
  43   22   45 1
  44   23   46 1
  45   23   47 1
  46   23   48 1
  47   24   25 1
  48   24   28 1
  49   24   49 1
  50   25   26 1
  51   25   50 1
  52   25   51 1
  53   26   27 1
  54   26   52 1
  55   26   53 1
  56   27   28 1
  57   27   54 1
  58   27   55 1
  59   28   56 1
  60   28   57 1

#	End of record

