#	Name: ASD00844637
#	Creating user name:	WinNT
#	Creation time:	15. 06. 2019 18:50

#	Modifying user name:	WinNT
#	Modification time:	15. 06. 2019 18:50

#	Program:	/corina/corina34_cracker 3.40 0067  02.08.2006

@<TRIPOS>MOLECULE
ASD00844637
  98  103    0    0    0
SMALL
NO_CHARGES


@<TRIPOS>ATOM
   1 C1             0.5635     1.2776    -0.7187 C.ar    
   2 C2             0.8721    -0.0617    -0.9058 C.ar    
   3 C3             0.8060    -0.9425     0.1643 C.ar    
   4 C4             0.4332    -0.4839     1.4127 C.ar    
   5 C5             0.1256     0.8517     1.5965 C.ar    
   6 C6             0.1911     1.7314     0.5320 C.ar    
   7 C7             1.1402    -2.3983    -0.0355 C.3     
   8 C8             0.8677    -3.1835     1.2299 C.2     
   9 C9             0.3414    -2.9745    -1.2063 C.3     
  10 C10           -1.1279    -2.7242    -0.9835 C.2     
  11 N11           -2.0318    -3.1827    -1.8718 N.am    
  12 O12           -1.4968    -2.1103    -0.0048 O.2     
  13 C13           -3.4550    -2.8447    -1.7337 C.3     
  14 C14           -4.2723    -4.1404    -1.7386 C.3     
  15 C15           -3.9366    -4.9458    -2.9959 C.3     
  16 C16           -2.4507    -5.3120    -2.9876 C.3     
  17 C17           -1.6120    -4.0249    -3.0001 C.3     
  18 C18           -4.7765    -6.2244    -3.0215 C.3     
  19 C19           -6.2636    -5.8596    -3.0315 C.3     
  20 C20           -7.0973    -7.1400    -3.1186 C.3     
  21 N21           -6.7463    -7.8719    -4.3423 N.3     
  22 C22           -5.3340    -8.2740    -4.3338 C.3     
  23 C23           -4.4476    -7.0275    -4.2830 C.3     
  24 C24           -7.6237    -9.0350    -4.5300 C.3     
  25 O25           -0.2052    -3.3127     1.7805 O.2     
  26 N26            2.0379    -3.7100     1.6286 N.am    
  27 C27            2.6237    -2.5744    -0.2652 C.ar    
  28 C28            3.0881    -3.3719     0.7736 C.ar    
  29 C29            3.4806    -2.1142    -1.2394 C.ar    
  30 C30            4.8243    -2.4458    -1.1907 C.ar    
  31 C31            5.3002    -3.2405    -0.1599 C.ar    
  32 C32            4.4404    -3.7027     0.8181 C.ar    
  33 Cl33           5.9088    -1.8683    -2.4171 Cl      
  34 F34            6.6107    -3.5648    -0.1111 F       
  35 C35            1.9642    -6.3246     2.4848 C.ar    
  36 C36            0.7230    -6.7330     2.0193 C.ar    
  37 C37            3.0062    -7.2292     2.5551 C.ar    
  38 C38            2.8127    -8.5402     2.1615 C.ar    
  39 C39            1.5762    -8.9498     1.6971 C.ar    
  40 C40            0.5312    -8.0495     1.6253 C.ar    
  41 H41            1.4276    -9.9746     1.3902 H       
  42 O42           -0.3036    -5.8452     1.9496 O.3     
  43 C43           -1.5534    -6.3358     1.4605 C.3     
  44 C44           -2.5796    -5.2010     1.4545 C.3     
  45 C45           -7.3111    -9.6981    -5.8730 C.3     
  46 C46           -7.3894   -10.0384    -3.3990 C.3     
  47 S47            2.2138    -4.6519     2.9793 S.o2    
  48 O48            3.5770    -4.5471     3.3667 O.2     
  49 O49            1.1333    -4.3228     3.8415 O.2     
  50 O50            1.2382    -0.5106    -2.1352 O.3     
  51 C51            1.2022     0.4331    -3.2076 C.3     
  52 C52            1.7096    -0.2314    -4.4890 C.3     
  53 F53            2.9917    -0.7470    -4.2707 F       
  54 F54            0.8444    -1.2699    -4.8498 F       
  55 H55            0.6185     1.9660    -1.5491 H       
  56 H56            0.3816    -1.1691     2.2460 H       
  57 H57           -0.1664     1.2082     2.5732 H       
  58 H58           -0.0497     2.7740     0.6781 H       
  59 H59            0.6556    -2.4931    -2.1324 H       
  60 H60            0.5208    -4.0474    -1.2755 H       
  61 H61           -3.6154    -2.3150    -0.7946 H       
  62 H62           -3.7636    -2.2149    -2.5681 H       
  63 H63           -4.0275    -4.7282    -0.8539 H       
  64 H64           -5.3354    -3.9000    -1.7335 H       
  65 H65           -4.1584    -4.3481    -3.8800 H       
  66 H66           -2.2231    -5.8887    -2.0912 H       
  67 H67           -2.2173    -5.9054    -3.8716 H       
  68 H68           -1.7715    -3.4939    -3.9386 H       
  69 H69           -0.5565    -4.2755    -2.8946 H       
  70 H70           -4.5544    -6.8238    -2.1386 H       
  71 H71           -6.5132    -5.3244    -2.1153 H       
  72 H72           -6.4773    -5.2269    -3.8929 H       
  73 H73           -6.8934    -7.7659    -2.2499 H       
  74 H74           -8.1564    -6.8830    -3.1403 H       
  75 H75           -5.1383    -8.8947    -3.4594 H       
  76 H76           -5.1122    -8.8407    -5.2381 H       
  77 H77           -4.6327    -6.4131    -5.1641 H       
  78 H78           -3.3997    -7.3267    -4.2609 H       
  79 H79           -8.6643    -8.7108    -4.5184 H       
  80 H80            3.1053    -1.4954    -2.0410 H       
  81 H81            4.8178    -4.3214     1.6189 H       
  82 H82            3.9728    -6.9117     2.9175 H       
  83 H83            3.6286    -9.2456     2.2166 H       
  84 H84           -0.4344    -8.3700     1.2632 H       
  85 H85           -1.4236    -6.7136     0.4463 H       
  86 H86           -1.9055    -7.1406     2.1057 H       
  87 H87           -3.5330    -5.5752     1.0813 H       
  88 H88           -2.7094    -4.8232     2.4686 H       
  89 H89           -2.2276    -4.3961     0.8092 H       
  90 H90           -6.2705   -10.0224    -5.8846 H       
  91 H91           -7.9621   -10.5612    -6.0123 H       
  92 H92           -7.4780    -8.9833    -6.6787 H       
  93 H93           -7.6121    -9.5660    -2.4423 H       
  94 H94           -8.0405   -10.9015    -3.5383 H       
  95 H95           -6.3488   -10.3626    -3.4107 H       
  96 H96            0.1780     0.7749    -3.3566 H       
  97 H97            1.8375     1.2846    -2.9638 H       
  98 H98            1.7462     0.5061    -5.2908 H       
@<TRIPOS>BOND
   1    1    2 ar
   2    1    6 ar
   3    1   55 1
   4    2    3 ar
   5    2   50 1
   6    3    4 ar
   7    3    7 1
   8    4    5 ar
   9    4   56 1
  10    5    6 ar
  11    5   57 1
  12    6   58 1
  13    7    8 1
  14    7    9 1
  15    7   27 1
  16    8   25 2
  17    8   26 am
  18    9   10 1
  19    9   59 1
  20    9   60 1
  21   10   11 am
  22   10   12 2
  23   11   13 1
  24   11   17 1
  25   13   14 1
  26   13   61 1
  27   13   62 1
  28   14   15 1
  29   14   63 1
  30   14   64 1
  31   15   16 1
  32   15   18 1
  33   15   65 1
  34   16   17 1
  35   16   66 1
  36   16   67 1
  37   17   68 1
  38   17   69 1
  39   18   19 1
  40   18   23 1
  41   18   70 1
  42   19   20 1
  43   19   71 1
  44   19   72 1
  45   20   21 1
  46   20   73 1
  47   20   74 1
  48   21   22 1
  49   21   24 1
  50   22   23 1
  51   22   75 1
  52   22   76 1
  53   23   77 1
  54   23   78 1
  55   24   45 1
  56   24   46 1
  57   24   79 1
  58   26   47 am
  59   26   28 1
  60   27   28 ar
  61   27   29 ar
  62   28   32 ar
  63   29   30 ar
  64   29   80 1
  65   30   31 ar
  66   30   33 1
  67   31   32 ar
  68   31   34 1
  69   32   81 1
  70   35   36 ar
  71   35   37 ar
  72   35   47 1
  73   36   42 1
  74   36   40 ar
  75   37   38 ar
  76   37   82 1
  77   38   39 ar
  78   38   83 1
  79   39   40 ar
  80   39   41 1
  81   40   84 1
  82   42   43 1
  83   43   44 1
  84   43   85 1
  85   43   86 1
  86   44   87 1
  87   44   88 1
  88   44   89 1
  89   45   90 1
  90   45   91 1
  91   45   92 1
  92   46   93 1
  93   46   94 1
  94   46   95 1
  95   47   48 2
  96   47   49 2
  97   50   51 1
  98   51   52 1
  99   51   96 1
 100   51   97 1
 101   52   53 1
 102   52   54 1
 103   52   98 1

#	End of record

