#	Name: ASD01815930
#	Creating user name:	WinNT
#	Creation time:	15. 06. 2019 19:34

#	Modifying user name:	WinNT
#	Modification time:	15. 06. 2019 19:34

#	Program:	/corina/corina34_cracker 3.40 0067  02.08.2006

@<TRIPOS>MOLECULE
ASD01815930
  69   75    0    0    0
SMALL
NO_CHARGES


@<TRIPOS>ATOM
   1 C1            -0.5957     2.1922    -1.6431 C.ar    
   2 C2            -0.8553     0.8316    -1.6314 C.ar    
   3 C3             0.1472    -0.0740    -1.3439 C.ar    
   4 C4             1.4342     0.3762    -1.0620 C.ar    
   5 C5             1.6946     1.7561    -1.0747 C.ar    
   6 C6             0.6750     2.6598    -1.3661 C.ar    
   7 N7             2.4437    -0.5269    -0.7726 N.pl3   
   8 C8             3.7020    -0.1516    -0.4930 C.2     
   9 C9             4.0743     1.1697    -0.4759 C.2     
  10 C10            3.0649     2.2115    -0.7733 C.2     
  11 C11            5.3116     1.9005    -0.2206 C.2     
  12 N12            5.0119     3.2096    -0.3633 N.am    
  13 N13            3.6632     3.3653    -0.6935 N.2     
  14 C14            5.9224     4.2605    -0.2033 C.ar    
  15 O15            6.3983     1.4244     0.0649 O.2     
  16 C16            2.1237    -1.9565    -0.7709 C.3     
  17 C17            2.3376    -2.5207    -2.1518 C.ar    
  18 C18            3.6030    -2.9119    -2.5490 C.ar    
  19 C19            3.8022    -3.4290    -3.8141 C.ar    
  20 C20            2.7303    -3.5562    -4.6872 C.ar    
  21 C21            1.4608    -3.1630    -4.2854 C.ar    
  22 C22            1.2670    -2.6514    -3.0172 C.ar    
  23 N23            2.9293    -4.0802    -5.9721 N.pl3   
  24 C24            1.9772    -4.2569    -6.9159 C.2     
  25 F25            0.9274     3.9869    -1.3783 F       
  26 F26           -0.1214    -1.3980    -1.3358 F       
  27 C27            2.5745    -4.7841    -8.0097 C.2     
  28 C28            3.9363    -4.9350    -7.7263 C.2     
  29 N29            4.1510    -4.5080    -6.5079 N.2     
  30 C30            6.7374     4.6422    -1.2610 C.ar    
  31 C31            7.6350     5.6797    -1.0997 C.ar    
  32 C32            7.7228     6.3376     0.1133 C.ar    
  33 C33            6.9125     5.9599     1.1686 C.ar    
  34 C34            6.0088     4.9276     1.0122 C.ar    
  35 C35            5.1263     4.5168     2.1626 C.3     
  36 N36            5.5329     5.2407     3.3744 N.3     
  37 C37            4.4800     5.1886     4.3967 C.3     
  38 C38            4.8750     6.0707     5.5832 C.3     
  39 C39            6.2013     5.5725     6.1640 C.3     
  40 C40            7.2690     5.5911     5.0666 C.3     
  41 C41            6.8046     4.7229     3.8951 C.3     
  42 H42           -1.3875     2.8895    -1.8738 H       
  43 H43           -1.8515     0.4754    -1.8487 H       
  44 H44            4.4406    -0.9089    -0.2756 H       
  45 H45            2.7718    -2.4730    -0.0629 H       
  46 H46            1.0828    -2.0954    -0.4788 H       
  47 H47            4.4364    -2.8128    -1.8693 H       
  48 H48            4.7909    -3.7338    -4.1240 H       
  49 H49            0.6251    -3.2604    -4.9626 H       
  50 H50            0.2797    -2.3454    -2.7040 H       
  51 H51            0.9283    -4.0203    -6.8147 H       
  52 H52            2.0862    -5.0427    -8.9377 H       
  53 H53            4.6827    -5.3314    -8.3987 H       
  54 H54            6.6698     4.1283    -2.2084 H       
  55 H55            8.2691     5.9771    -1.9218 H       
  56 H56            8.4259     7.1480     0.2370 H       
  57 H57            6.9838     6.4756     2.1149 H       
  58 H58            4.0889     4.7550     1.9278 H       
  59 H59            5.2238     3.4441     2.3302 H       
  60 H60            3.5432     5.5493     3.9720 H       
  61 H61            4.3529     4.1602     4.7351 H       
  62 H62            4.9888     7.1017     5.2483 H       
  63 H63            4.1005     6.0195     6.3485 H       
  64 H64            6.5084     6.2242     6.9820 H       
  65 H65            6.0774     4.5550     6.5345 H       
  66 H66            7.4205     6.6145     4.7235 H       
  67 H67            8.2050     5.1972     5.4628 H       
  68 H68            6.6666     3.6967     4.2358 H       
  69 H69            7.5562     4.7454     3.1060 H       
@<TRIPOS>BOND
   1    1    2 ar
   2    1    6 ar
   3    1   42 1
   4    2    3 ar
   5    2   43 1
   6    3    4 ar
   7    3   26 1
   8    4    5 ar
   9    4    7 1
  10    5    6 ar
  11    5   10 1
  12    6   25 1
  13    7    8 1
  14    7   16 1
  15    8    9 2
  16    8   44 1
  17    9   10 1
  18    9   11 1
  19   10   13 2
  20   11   12 am
  21   11   15 2
  22   12   13 1
  23   12   14 1
  24   14   30 ar
  25   14   34 ar
  26   16   17 1
  27   16   45 1
  28   16   46 1
  29   17   18 ar
  30   17   22 ar
  31   18   19 ar
  32   18   47 1
  33   19   20 ar
  34   19   48 1
  35   20   21 ar
  36   20   23 1
  37   21   22 ar
  38   21   49 1
  39   22   50 1
  40   23   24 1
  41   23   29 1
  42   24   27 2
  43   24   51 1
  44   27   28 1
  45   27   52 1
  46   28   29 2
  47   28   53 1
  48   30   31 ar
  49   30   54 1
  50   31   32 ar
  51   31   55 1
  52   32   33 ar
  53   32   56 1
  54   33   34 ar
  55   33   57 1
  56   34   35 1
  57   35   36 1
  58   35   58 1
  59   35   59 1
  60   36   37 1
  61   36   41 1
  62   37   38 1
  63   37   60 1
  64   37   61 1
  65   38   39 1
  66   38   62 1
  67   38   63 1
  68   39   40 1
  69   39   64 1
  70   39   65 1
  71   40   41 1
  72   40   66 1
  73   40   67 1
  74   41   68 1
  75   41   69 1

#	End of record

