#	Name: ASD08150992
#	Creating user name:	WinNT
#	Creation time:	15. 06. 2019 21:16

#	Modifying user name:	WinNT
#	Modification time:	15. 06. 2019 21:16

#	Program:	/corina/corina34_cracker 3.40 0067  02.08.2006

@<TRIPOS>MOLECULE
ASD08150992
  21   22    0    0    0
SMALL
NO_CHARGES


@<TRIPOS>ATOM
   1 C1            -0.0173     1.4248     0.0099 C.3     
   2 O2             0.0021    -0.0041     0.0020 O.3     
   3 S3             5.5045     3.8091    -0.0277 S.3     
   4 C4             4.6369     5.2784    -0.0116 C.2     
   5 N5             3.3736     5.0775    -0.0015 N.2     
   6 C6             2.9395     3.8027    -0.0049 C.ar    
   7 C7             4.0014     2.8917    -0.0196 C.ar    
   8 C8             1.6217     3.3007     0.0043 C.ar    
   9 C9             1.3965     1.9464    -0.0008 C.ar    
  10 C10            2.4584     1.0534    -0.0153 C.ar    
  11 C11            3.7531     1.5210    -0.0251 C.ar    
  12 C12            5.2785     6.6420    -0.0091 C.3     
  13 Br13           0.1584     4.4982     0.0248 Br      
  14 H14           -0.5445     1.7859    -0.8732 H       
  15 H15           -0.5275     1.7763     0.9067 H       
  16 H16           -0.8759    -0.4094     0.0082 H       
  17 H17            2.2690    -0.0099    -0.0192 H       
  18 H18            4.5779     0.8238    -0.0364 H       
  19 H19            6.3630     6.5333    -0.0194 H       
  20 H20            4.9603     7.1949    -0.8929 H       
  21 H21            4.9763     7.1841     0.8870 H       
@<TRIPOS>BOND
   1    1    2 1
   2    1    9 1
   3    1   14 1
   4    1   15 1
   5    2   16 1
   6    3    4 1
   7    3    7 1
   8    4    5 2
   9    4   12 1
  10    5    6 1
  11    6    7 ar
  12    6    8 ar
  13    7   11 ar
  14    8    9 ar
  15    8   13 1
  16    9   10 ar
  17   10   11 ar
  18   10   17 1
  19   11   18 1
  20   12   19 1
  21   12   20 1
  22   12   21 1

#	End of record

