#	Name: ASD00310088
#	Creating user name:	WinNT
#	Creation time:	15. 06. 2019 18:33

#	Modifying user name:	WinNT
#	Modification time:	15. 06. 2019 18:33

#	Program:	/corina/corina34_cracker 3.40 0067  02.08.2006

@<TRIPOS>MOLECULE
ASD00310088
  39   41    0    0    0
SMALL
NO_CHARGES


@<TRIPOS>ATOM
   1 N1            -0.0163     1.3508     0.0095 N.pl3   
   2 C2             0.0021    -0.0041     0.0020 C.2     
   3 C3             1.2915    -0.4484    -0.0127 C.2     
   4 C4             2.1461     0.7545    -0.0144 C.ar    
   5 C5             3.5190     0.9617    -0.0267 C.ar    
   6 C6             4.0148     2.2620    -0.0249 C.ar    
   7 C7             3.1310     3.3483    -0.0106 C.ar    
   8 C8             1.7809     3.1460     0.0015 C.ar    
   9 C9             1.2659     1.8513    -0.0001 C.ar    
  10 C10            1.7400    -1.8457    -0.0237 C.2     
  11 O11            2.9284    -2.1027    -0.0361 O.2     
  12 O12            0.8342    -2.8446    -0.0202 O.3     
  13 O13            6.0961     3.8352    -0.0366 O.3     
  14 B14            5.5648     2.5112    -0.0383 Du      
  15 O15            6.4842     1.4203    -0.0519 O.3     
  16 C16            7.5114     1.5521     0.9385 C.3     
  17 C17            8.1736     2.9251     0.7910 C.3     
  18 C18            7.1148     4.0197     0.9541 C.3     
  19 C19            9.2493     3.0912     1.8662 C.3     
  20 C20            8.8140     3.0368    -0.5940 C.3     
  21 Cl21           3.7581     4.9671    -0.0078 Cl      
  22 C22            1.3497    -4.2020    -0.0317 C.3     
  23 H23           -0.8209     1.8925     0.0164 H       
  24 H24           -0.8729    -0.6371     0.0075 H       
  25 H25            4.1965     0.1207    -0.0374 H       
  26 H26            1.1099     3.9922     0.0128 H       
  27 H27            7.0730     1.4635     1.9325 H       
  28 H28            8.2574     0.7702     0.7964 H       
  29 H29            7.5781     4.9976     0.8232 H       
  30 H30            6.6728     3.9542     1.9483 H       
  31 H31           10.0017     2.3109     1.7510 H       
  32 H32            9.7204     4.0685     1.7610 H       
  33 H33            8.7923     3.0125     2.8526 H       
  34 H34            8.0470     2.9194    -1.3595 H       
  35 H35            9.2852     4.0141    -0.6987 H       
  36 H36            9.5661     2.2565    -0.7106 H       
  37 H37            1.9507    -4.3548    -0.9281 H       
  38 H38            1.9673    -4.3636     0.8518 H       
  39 H39            0.5180    -4.9065    -0.0274 H       
@<TRIPOS>BOND
   1    1    2 1
   2    1    9 1
   3    1   23 1
   4    2    3 2
   5    2   24 1
   6    3    4 1
   7    3   10 1
   8    4    5 ar
   9    4    9 ar
  10    5    6 ar
  11    5   25 1
  12    6    7 ar
  13    6   14 1
  14    7    8 ar
  15    7   21 1
  16    8    9 ar
  17    8   26 1
  18   10   11 2
  19   10   12 1
  20   12   22 1
  21   13   14 1
  22   13   18 1
  23   14   15 1
  24   15   16 1
  25   16   17 1
  26   16   27 1
  27   16   28 1
  28   17   18 1
  29   17   19 1
  30   17   20 1
  31   18   29 1
  32   18   30 1
  33   19   31 1
  34   19   32 1
  35   19   33 1
  36   20   34 1
  37   20   35 1
  38   20   36 1
  39   22   37 1
  40   22   38 1
  41   22   39 1

#	End of record

