#	Name: ASD03331134
#	Creating user name:	WinNT
#	Creation time:	15. 06. 2019 20:38

#	Modifying user name:	WinNT
#	Modification time:	15. 06. 2019 20:38

#	Program:	/corina/corina34_cracker 3.40 0067  02.08.2006

@<TRIPOS>MOLECULE
ASD03331134
  49   51    0    0    0
SMALL
NO_CHARGES


@<TRIPOS>ATOM
   1 N1            -0.0179     1.4666     0.0101 N.am    
   2 C2             0.0021    -0.0041     0.0020 C.3     
   3 C3             0.9085    -0.4723    -1.1414 C.3     
   4 N4             2.2251     0.1660    -1.0110 N.3     
   5 C5             2.1249     1.6258    -1.1417 C.3     
   6 C6             1.2683     2.1800     0.0017 C.3     
   7 C7            -1.1838     2.1425     0.0194 C.2     
   8 O8            -2.2372     1.5369     0.0211 O.2     
   9 O9            -1.1814     3.4889     0.0267 O.3     
  10 C10            3.1764    -0.3856    -1.9851 C.3     
  11 N11            6.5883     0.8409    -1.1143 N.ar    
  12 C12            5.4831     0.1364    -1.1361 C.ar    
  13 C13            4.4298     0.4510    -1.9923 C.ar    
  14 C14            4.5346     1.5179    -2.8385 C.ar    
  15 C15            5.7232     2.2719    -2.8127 C.ar    
  16 C16            5.9031     3.3821    -3.6529 C.ar    
  17 C17            7.0675     4.0861    -3.5976 C.ar    
  18 C18            8.0837     3.7190    -2.7181 C.ar    
  19 C19            7.9428     2.6484    -1.8897 C.ar    
  20 C20            6.7553     1.8969    -1.9170 C.ar    
  21 C21           -2.4739     4.1504     0.0364 C.3     
  22 C22           -3.2505     3.7339     1.2872 C.3     
  23 C23           -2.2707     5.6668     0.0437 C.3     
  24 C24           -3.2625     3.7475    -1.2112 C.3     
  25 H25            0.3920    -0.3702     0.9518 H       
  26 H26           -1.0081    -0.3831    -0.1529 H       
  27 H27            1.0231    -1.5553    -1.0945 H       
  28 H28            0.4625    -0.1944    -2.0963 H       
  29 H29            3.1216     2.0644    -1.0951 H       
  30 H30            1.6619     1.8745    -2.0966 H       
  31 H31            1.0953     3.2449    -0.1535 H       
  32 H32            1.7799     2.0238     0.9514 H       
  33 H33            3.4252    -1.4105    -1.7096 H       
  34 H34            2.7268    -0.3752    -2.9780 H       
  35 H35            5.3860    -0.7098    -0.4722 H       
  36 H36            3.7282     1.7757    -3.5090 H       
  37 H37            5.1229     3.6759    -4.3394 H       
  38 H38            7.2051     4.9400    -4.2443 H       
  39 H39            8.9981     4.2931    -2.6936 H       
  40 H40            8.7402     2.3775    -1.2136 H       
  41 H41           -2.6887     4.0209     2.1760 H       
  42 H42           -4.2208     4.2305     1.2945 H       
  43 H43           -3.3953     2.6536     1.2820 H       
  44 H44           -1.7174     5.9635    -0.8473 H       
  45 H45           -3.2410     6.1634     0.0511 H       
  46 H46           -1.7089     5.9538     0.9326 H       
  47 H47           -3.4073     2.6671    -1.2164 H       
  48 H48           -4.2328     4.2440    -1.2039 H       
  49 H49           -2.7092     4.0442    -2.1023 H       
@<TRIPOS>BOND
   1    1    2 1
   2    1    6 1
   3    1    7 am
   4    2    3 1
   5    2   25 1
   6    2   26 1
   7    3    4 1
   8    3   27 1
   9    3   28 1
  10    4    5 1
  11    4   10 1
  12    5    6 1
  13    5   29 1
  14    5   30 1
  15    6   31 1
  16    6   32 1
  17    7    8 2
  18    7    9 1
  19    9   21 1
  20   10   13 1
  21   10   33 1
  22   10   34 1
  23   11   12 ar
  24   11   20 ar
  25   12   13 ar
  26   12   35 1
  27   13   14 ar
  28   14   15 ar
  29   14   36 1
  30   15   16 ar
  31   15   20 ar
  32   16   17 ar
  33   16   37 1
  34   17   18 ar
  35   17   38 1
  36   18   19 ar
  37   18   39 1
  38   19   20 ar
  39   19   40 1
  40   21   22 1
  41   21   24 1
  42   21   23 1
  43   22   41 1
  44   22   42 1
  45   22   43 1
  46   23   44 1
  47   23   45 1
  48   23   46 1
  49   24   47 1
  50   24   48 1
  51   24   49 1

#	End of record

