#	Name: ASD03090246
#	Creating user name:	WinNT
#	Creation time:	15. 06. 2019 20:28

#	Modifying user name:	WinNT
#	Modification time:	15. 06. 2019 20:28

#	Program:	/corina/corina34_cracker 3.40 0067  02.08.2006

@<TRIPOS>MOLECULE
ASD03090246
  49   52    0    0    0
SMALL
NO_CHARGES


@<TRIPOS>ATOM
   1 C1            -0.0189     1.3025    -0.0114 C.ar    
   2 N2            -1.1714     1.8012    -0.4161 N.ar    
   3 C3            -2.2870     1.1032    -0.3659 C.ar    
   4 C4            -2.2853    -0.2030     0.1238 C.ar    
   5 C5            -1.0784    -0.7597     0.5604 C.ar    
   6 C6             0.0672     0.0131     0.4812 C.ar    
   7 C7            -3.5392    -0.9865     0.1809 C.2     
   8 N8            -6.9963    -1.3718     0.6880 N.pl3   
   9 C9            -7.5104    -0.1464     1.1246 C.ar    
  10 C10           -6.7172     0.7135     1.8730 C.ar    
  11 C11           -7.2270     1.9231     2.3031 C.ar    
  12 C12           -8.5278     2.2783     1.9890 C.ar    
  13 C13           -9.3206     1.4223     1.2428 C.ar    
  14 C14           -8.8132     0.2148     0.8055 C.ar    
  15 N15           -4.7347    -0.5162     0.4756 N.2     
  16 C16           -5.6304    -1.5040     0.4310 C.2     
  17 N17           -5.0204    -2.6208     0.1070 N.2     
  18 N18           -3.6619    -2.3100    -0.0658 N.pl3   
  19 C19           -2.5890    -3.2376    -0.4328 C.3     
  20 C20           -2.3046    -3.1210    -1.9316 C.3     
  21 F21           -9.0246     3.4615     2.4115 F       
  22 C22           -1.2733    -4.1754    -2.3385 C.3     
  23 O23           -1.7929    -1.8182    -2.2195 O.3     
  24 C24            1.2249     2.1494    -0.0931 C.3     
  25 C25            1.6356     2.9242     1.1607 C.3     
  26 C26            2.4404     1.6998     0.7201 C.3     
  27 C27          -10.7361     1.8118     0.9026 C.3     
  28 F28          -11.3312     0.7946     0.1487 F       
  29 F29          -11.4632     2.0042     2.0823 F       
  30 F30          -10.7280     2.9981     0.1611 F       
  31 H31           -3.2112     1.5461    -0.7065 H       
  32 H32           -1.0407    -1.7681     0.9453 H       
  33 H33            1.0168    -0.3835     0.8090 H       
  34 H34           -7.5888    -2.1297     0.5638 H       
  35 H35           -5.7027     0.4365     2.1188 H       
  36 H36           -6.6105     2.5922     2.8851 H       
  37 H37           -9.4317    -0.4522     0.2233 H       
  38 H38           -1.6877    -2.9909     0.1283 H       
  39 H39           -2.8947    -4.2574    -0.1992 H       
  40 H40           -3.2270    -3.2806    -2.4900 H       
  41 H41           -1.6636    -5.1692    -2.1189 H       
  42 H42           -1.0706    -4.0924    -3.4063 H       
  43 H43           -0.3508    -4.0159    -1.7801 H       
  44 H44           -0.9709    -1.6072    -1.7558 H       
  45 H45            1.4109     2.6196    -1.0587 H       
  46 H46            2.0922     3.9039     1.0199 H       
  47 H47            1.0062     2.8212     2.0446 H       
  48 H48            2.3405     0.7914     1.3142 H       
  49 H49            3.4265     1.8740     0.2894 H       
@<TRIPOS>BOND
   1    1    2 ar
   2    1   24 1
   3    1    6 ar
   4    2    3 ar
   5    3    4 ar
   6    3   31 1
   7    4    5 ar
   8    4    7 1
   9    5    6 ar
  10    5   32 1
  11    6   33 1
  12    7   15 2
  13    7   18 1
  14    8    9 1
  15    8   16 1
  16    8   34 1
  17    9   10 ar
  18    9   14 ar
  19   10   11 ar
  20   10   35 1
  21   11   12 ar
  22   11   36 1
  23   12   13 ar
  24   12   21 1
  25   13   14 ar
  26   13   27 1
  27   14   37 1
  28   15   16 1
  29   16   17 2
  30   17   18 1
  31   18   19 1
  32   19   20 1
  33   19   38 1
  34   19   39 1
  35   20   22 1
  36   20   23 1
  37   20   40 1
  38   22   41 1
  39   22   42 1
  40   22   43 1
  41   23   44 1
  42   24   25 1
  43   24   26 1
  44   24   45 1
  45   25   26 1
  46   25   46 1
  47   25   47 1
  48   26   48 1
  49   26   49 1
  50   27   28 1
  51   27   29 1
  52   27   30 1

#	End of record

