#	Name: ASD08170246
#	Creating user name:	WinNT
#	Creation time:	15. 06. 2019 21:17

#	Modifying user name:	WinNT
#	Modification time:	15. 06. 2019 21:17

#	Program:	/corina/corina34_cracker 3.40 0067  02.08.2006

@<TRIPOS>MOLECULE
ASD08170246
  64   67    0    0    0
SMALL
NO_CHARGES


@<TRIPOS>ATOM
   1 N1            -0.0150     1.2583     0.0090 N.2     
   2 N2             0.0021    -0.0041     0.0020 N.2     
   3 C3             1.1271     1.8769     0.0014 C.2     
   4 S4             2.3826     0.7116    -0.0169 S.3     
   5 C5             1.1681    -0.5677    -0.0121 C.2     
   6 C6             1.4387    -2.0502    -0.0227 C.3     
   7 C7             1.5165    -2.5442    -1.4687 C.3     
   8 C8             1.7912    -4.0493    -1.4794 C.3     
   9 C9             1.7454    -4.5658    -2.9188 C.3     
  10 C10            1.8959    -6.0884    -2.9193 C.3     
  11 C11            1.8507    -6.5972    -4.3371 C.2     
  12 N12            2.8664    -6.7529    -5.1256 N.2     
  13 S13            0.4060    -7.0949    -5.2183 S.3     
  14 C14            1.3830    -7.4526    -6.5793 C.2     
  15 N15            2.6208    -7.1937    -6.2828 N.2     
  16 N16            0.9269    -7.9434    -7.7981 N.am    
  17 C17            1.7997    -8.1857    -8.7961 C.2     
  18 O18            2.9828    -7.9757    -8.6313 O.2     
  19 C19            1.3056    -8.7175   -10.1167 C.3     
  20 N20            1.3017     3.2566     0.0067 N.am    
  21 C21            0.2284     4.0717     0.0214 C.2     
  22 O22           -0.8897     3.6019     0.0299 O.2     
  23 C23            0.4176     5.5667     0.0272 C.3     
  24 C24           -0.9288     6.2434     0.0438 C.ar    
  25 C25           -1.5346     6.5477     1.2485 C.ar    
  26 C26            2.4723    -8.9002   -11.0529 C.ar    
  27 C27           -2.7697     7.1684     1.2638 C.ar    
  28 C28           -3.3988     7.4852     0.0743 C.ar    
  29 C29           -2.7926     7.1818    -1.1304 C.ar    
  30 C30           -1.5555     6.5650    -1.1456 C.ar    
  31 C31            3.1508   -10.1041   -11.0849 C.ar    
  32 C32            4.2210   -10.2717   -11.9436 C.ar    
  33 C33            4.6124    -9.2355   -12.7707 C.ar    
  34 C34            3.9333    -8.0319   -12.7394 C.ar    
  35 C35            2.8603    -7.8658   -11.8837 C.ar    
  36 C36            3.1746    -4.3195    -0.8844 C.3     
  37 H37            2.3843    -2.2506     0.4811 H       
  38 H38            0.6334    -2.5702     0.4961 H       
  39 H39            0.5709    -2.3438    -1.9724 H       
  40 H40            2.3218    -2.0242    -1.9874 H       
  41 H41            1.0340    -4.5610    -0.8854 H       
  42 H42            0.7917    -4.2948    -3.3719 H       
  43 H43            2.5591    -4.1201    -3.4909 H       
  44 H44            2.8495    -6.3594    -2.4662 H       
  45 H45            1.0821    -6.5341    -2.3472 H       
  46 H46           -0.0193    -8.1114    -7.9298 H       
  47 H47            0.8116    -9.6765    -9.9603 H       
  48 H48            0.5983    -8.0111   -10.5511 H       
  49 H49            2.1959     3.6323    -0.0001 H       
  50 H50            0.9817     5.8582     0.9132 H       
  51 H51            0.9643     5.8672    -0.8667 H       
  52 H52           -1.0431     6.3001     2.1778 H       
  53 H53           -3.2433     7.4054     2.2050 H       
  54 H54           -4.3640     7.9695     0.0863 H       
  55 H55           -3.2842     7.4290    -2.0597 H       
  56 H56           -1.0819     6.3279    -2.0868 H       
  57 H57            2.8451   -10.9137   -10.4387 H       
  58 H58            4.7516   -11.2121   -11.9681 H       
  59 H59            5.4490    -9.3662   -13.4411 H       
  60 H60            4.2392    -7.2223   -13.3853 H       
  61 H61            2.3297    -6.9255   -11.8592 H       
  62 H62            3.2073    -3.9514     0.1411 H       
  63 H63            3.3703    -5.3917    -0.8920 H       
  64 H64            3.9318    -3.8077    -1.4783 H       
@<TRIPOS>BOND
   1    1    2 1
   2    1    3 2
   3    2    5 2
   4    3    4 1
   5    3   20 1
   6    4    5 1
   7    5    6 1
   8    6    7 1
   9    6   37 1
  10    6   38 1
  11    7    8 1
  12    7   39 1
  13    7   40 1
  14    8    9 1
  15    8   36 1
  16    8   41 1
  17    9   10 1
  18    9   42 1
  19    9   43 1
  20   10   11 1
  21   10   44 1
  22   10   45 1
  23   11   12 2
  24   11   13 1
  25   12   15 1
  26   13   14 1
  27   14   15 2
  28   14   16 1
  29   16   17 am
  30   16   46 1
  31   17   18 2
  32   17   19 1
  33   19   26 1
  34   19   47 1
  35   19   48 1
  36   20   21 am
  37   20   49 1
  38   21   22 2
  39   21   23 1
  40   23   24 1
  41   23   50 1
  42   23   51 1
  43   24   25 ar
  44   24   30 ar
  45   25   27 ar
  46   25   52 1
  47   26   31 ar
  48   26   35 ar
  49   27   28 ar
  50   27   53 1
  51   28   29 ar
  52   28   54 1
  53   29   30 ar
  54   29   55 1
  55   30   56 1
  56   31   32 ar
  57   31   57 1
  58   32   33 ar
  59   32   58 1
  60   33   34 ar
  61   33   59 1
  62   34   35 ar
  63   34   60 1
  64   35   61 1
  65   36   62 1
  66   36   63 1
  67   36   64 1

#	End of record

