#	Name: ASD01410057
#	Creating user name:	WinNT
#	Creation time:	15. 06. 2019 19:16

#	Modifying user name:	WinNT
#	Modification time:	15. 06. 2019 19:16

#	Program:	/corina/corina34_cracker 3.40 0067  02.08.2006

@<TRIPOS>MOLECULE
ASD01410057
  34   35    0    0    0
SMALL
NO_CHARGES


@<TRIPOS>ATOM
   1 C1            -0.0277     1.4066    -0.0675 C.ar    
   2 C2            -0.0048     0.0235    -0.0690 C.ar    
   3 C3            -1.1884    -0.6885    -0.0487 C.ar    
   4 C4            -2.4028    -0.0149    -0.0266 C.ar    
   5 C5            -2.4240     1.3739    -0.0251 C.ar    
   6 C6            -1.2371     2.0816    -0.0398 C.ar    
   7 N7            -3.6013    -0.7332    -0.0065 N.pl3   
   8 C8            -4.8815    -0.0215     0.0168 C.3     
   9 C9            -6.0107    -1.0193     0.0354 C.2     
  10 N10           -7.2883    -0.5907     0.0582 N.am    
  11 C11           -8.3321    -1.5076    -0.0378 C.ar    
  12 C12           -8.1943    -2.6413    -0.8267 C.ar    
  13 C13           -9.2304    -3.5490    -0.9206 C.ar    
  14 C14          -10.4131    -3.3372    -0.2309 C.ar    
  15 C15          -10.5683    -2.2174     0.5573 C.ar    
  16 C16           -9.5266    -1.2929     0.6673 C.ar    
  17 C17           -9.6856    -0.0935     1.5089 C.2     
  18 O18          -10.8727     0.1695     2.0898 O.3     
  19 O19           -8.7462     0.6583     1.6788 O.2     
  20 O20           -5.7698    -2.2078     0.0298 O.2     
  21 Cl21          -1.2619     3.8174    -0.0374 Cl      
  22 Cl22           1.4617     2.2980    -0.0931 Cl      
  23 H23            0.9395    -0.5003    -0.0865 H       
  24 H24           -1.1695    -1.7683    -0.0502 H       
  25 H25           -3.3670     1.9001    -0.0084 H       
  26 H26           -3.5855    -1.7031    -0.0079 H       
  27 H27           -4.9338     0.6031     0.9085 H       
  28 H28           -4.9650     0.6052    -0.8712 H       
  29 H29           -7.4808     0.3563     0.1416 H       
  30 H30           -7.2758    -2.8134    -1.3681 H       
  31 H31           -9.1183    -4.4296    -1.5357 H       
  32 H32          -11.2177    -4.0531    -0.3117 H       
  33 H33          -11.4925    -2.0569     1.0926 H       
  34 H34          -10.9285     0.9678     2.6327 H       
@<TRIPOS>BOND
   1    1    2 ar
   2    1   22 1
   3    1    6 ar
   4    2    3 ar
   5    2   23 1
   6    3    4 ar
   7    3   24 1
   8    4    5 ar
   9    4    7 1
  10    5    6 ar
  11    5   25 1
  12    6   21 1
  13    7    8 1
  14    7   26 1
  15    8    9 1
  16    8   27 1
  17    8   28 1
  18    9   10 am
  19    9   20 2
  20   10   11 1
  21   10   29 1
  22   11   12 ar
  23   11   16 ar
  24   12   13 ar
  25   12   30 1
  26   13   14 ar
  27   13   31 1
  28   14   15 ar
  29   14   32 1
  30   15   16 ar
  31   15   33 1
  32   16   17 1
  33   17   18 1
  34   17   19 2
  35   18   34 1

#	End of record

