#	Name: ASD01150247
#	Creating user name:	WinNT
#	Creation time:	15. 06. 2019 19:03

#	Modifying user name:	WinNT
#	Modification time:	15. 06. 2019 19:03

#	Program:	/corina/corina34_cracker 3.40 0067  02.08.2006

@<TRIPOS>MOLECULE
ASD01150247
  61   65    0    0    0
SMALL
NO_CHARGES


@<TRIPOS>ATOM
   1 C1             0.0512     1.1445     0.2577 C.ar    
   2 C2             0.0538     0.0388    -0.5998 C.ar    
   3 C3            -1.1107    -0.5051    -1.0434 C.ar    
   4 C4            -2.3414     0.0438    -0.6409 C.ar    
   5 C5            -2.3490     1.1629     0.2270 C.ar    
   6 C6            -1.1385     1.7034     0.6761 C.ar    
   7 N7            -3.4967    -0.4777    -1.0676 N.ar    
   8 C8            -4.6551     0.0187    -0.7049 C.ar    
   9 C9            -4.7511     1.1154     0.1434 C.ar    
  10 C10           -3.5943     1.7108     0.6286 C.ar    
  11 N11            1.2621     1.6828     0.6978 N.3     
  12 C12           -3.6585     2.8807     1.5341 C.ar    
  13 C13           -6.1027     1.6546     0.5351 C.3     
  14 N14           -7.1085     0.5985     0.3969 N.am    
  15 C15           -5.9187    -0.6182    -1.2232 C.3     
  16 C16           -3.1970     2.7760     2.8465 C.ar    
  17 C17           -3.2585     3.8686     3.6858 C.ar    
  18 C18           -3.7780     5.0690     3.2276 C.ar    
  19 C19           -4.2377     5.1781     1.9247 C.ar    
  20 C20           -4.1752     4.0928     1.0758 C.ar    
  21 F21           -3.8369     6.1363     4.0538 F       
  22 C22            2.4008     0.9399     0.1430 C.3     
  23 C23            3.7054     1.6422     0.5264 C.3     
  24 C24            3.8123     1.7122     2.0523 C.3     
  25 C25            2.5903     2.4484     2.6085 C.3     
  26 C26            1.3181     1.7227     2.1647 C.3     
  27 C27           -6.0600     2.1313     1.9883 C.3     
  28 C28           -8.1768     0.7916    -0.4184 C.2     
  29 C29           -9.1192    -0.1692    -0.5618 C.2     
  30 C30           -8.9969    -1.3792     0.1356 C.2     
  31 C31           -7.9227    -1.5716     0.9539 C.2     
  32 C32           -6.9601    -0.5549     1.0758 C.2     
  33 O33           -5.9938    -0.7140     1.8043 O.2     
  34 H34            0.9945    -0.3887    -0.9141 H       
  35 H35           -1.0906    -1.3583    -1.7052 H       
  36 H36           -1.1359     2.5567     1.3380 H       
  37 H37           -6.3623     2.4908    -0.1141 H       
  38 H38           -6.3201    -1.2951    -0.4691 H       
  39 H39           -6.6526     0.1571    -1.4431 H       
  40 H40           -5.6973    -1.1772    -2.1324 H       
  41 H41           -2.7926     1.8408     3.2047 H       
  42 H42           -2.9015     3.7886     4.7020 H       
  43 H43           -4.6420     6.1155     1.5723 H       
  44 H44           -4.5334     4.1789     0.0606 H       
  45 H45            2.4029    -0.0739     0.5434 H       
  46 H46            2.3148     0.9011    -0.9429 H       
  47 H47            4.5511     1.0820     0.1277 H       
  48 H48            3.7100     2.6514     0.1146 H       
  49 H49            3.8469     0.7026     2.4617 H       
  50 H50            4.7189     2.2501     2.3296 H       
  51 H51            2.6393     2.4641     3.6972 H       
  52 H52            2.5774     3.4702     2.2294 H       
  53 H53            0.4456     2.2524     2.5472 H       
  54 H54            1.3252     0.7052     2.5557 H       
  55 H55           -5.3117     2.9172     2.0911 H       
  56 H56           -7.0376     2.5214     2.2716 H       
  57 H57           -5.8004     1.2952     2.6375 H       
  58 H58           -8.2758     1.7219    -0.9579 H       
  59 H59           -9.9649    -0.0037    -1.2128 H       
  60 H60           -9.7451    -2.1504     0.0264 H       
  61 H61           -7.8113    -2.4969     1.4997 H       
@<TRIPOS>BOND
   1    1    2 ar
   2    1   11 1
   3    1    6 ar
   4    2    3 ar
   5    2   34 1
   6    3    4 ar
   7    3   35 1
   8    4    5 ar
   9    4    7 ar
  10    5    6 ar
  11    5   10 ar
  12    6   36 1
  13    7    8 ar
  14    8    9 ar
  15    8   15 1
  16    9   10 ar
  17    9   13 1
  18   10   12 1
  19   11   22 1
  20   11   26 1
  21   12   16 ar
  22   12   20 ar
  23   13   14 1
  24   13   27 1
  25   13   37 1
  26   14   28 1
  27   14   32 am
  28   15   38 1
  29   15   39 1
  30   15   40 1
  31   16   17 ar
  32   16   41 1
  33   17   18 ar
  34   17   42 1
  35   18   19 ar
  36   18   21 1
  37   19   20 ar
  38   19   43 1
  39   20   44 1
  40   22   23 1
  41   22   45 1
  42   22   46 1
  43   23   24 1
  44   23   47 1
  45   23   48 1
  46   24   25 1
  47   24   49 1
  48   24   50 1
  49   25   26 1
  50   25   51 1
  51   25   52 1
  52   26   53 1
  53   26   54 1
  54   27   55 1
  55   27   56 1
  56   27   57 1
  57   28   29 2
  58   28   58 1
  59   29   30 1
  60   29   59 1
  61   30   31 2
  62   30   60 1
  63   31   32 1
  64   31   61 1
  65   32   33 2

#	End of record

