#	Name: ASD01811475
#	Creating user name:	WinNT
#	Creation time:	15. 06. 2019 19:26

#	Modifying user name:	WinNT
#	Modification time:	15. 06. 2019 19:26

#	Program:	/corina/corina34_cracker 3.40 0067  02.08.2006

@<TRIPOS>MOLECULE
ASD01811475
  45   49    0    0    0
SMALL
NO_CHARGES


@<TRIPOS>ATOM
   1 C1            -0.0166     1.3762     0.0096 C.ar    
   2 C2             0.0021    -0.0041     0.0020 C.ar    
   3 N3             1.1394    -0.6769    -0.0124 N.ar    
   4 C4             2.3152    -0.0872    -0.0205 C.ar    
   5 C5             2.3988     1.3079    -0.0138 C.ar    
   6 C6             1.1999     2.0556     0.0016 C.ar    
   7 C7             1.2961     3.5225     0.0081 C.2     
   8 N8             3.5826     1.9658    -0.0221 N.2     
   9 C9             3.6383     3.2638    -0.0160 C.2     
  10 N10            2.5389     4.0616    -0.0013 N.am    
  11 O11            0.3011     4.2231     0.0210 O.2     
  12 C12            2.6987     5.5179     0.0041 C.3     
  13 C13            2.7671     6.0105     1.4266 C.ar    
  14 C14            1.6044     6.3617     2.0923 C.ar    
  15 C15            3.9919     6.1054     2.0663 C.ar    
  16 C16            4.0594     6.5559     3.3716 C.ar    
  17 C17            2.8928     6.9153     4.0435 C.ar    
  18 C18            1.6623     6.8141     3.3974 C.ar    
  19 C19            2.9601     7.3993     5.4441 C.ar    
  20 C20            4.1964     7.4947     6.0901 C.ar    
  21 C21            4.2734     7.9384     7.3774 C.ar    
  22 C22            1.8645     8.2140     7.4169 C.ar    
  23 C23            1.7941     7.7623     6.1089 C.ar    
  24 F24            5.1224     5.7566     1.4138 F       
  25 F25            0.4118     6.2623     1.4653 F       
  26 N26            0.9258     8.6313     8.3403 N.pl3   
  27 C27            3.1103     8.3023     8.0634 C.ar    
  28 N28            2.8727     8.7670     9.3165 N.2     
  29 C29            1.5959     8.9591     9.4779 C.2     
  30 C30           -0.5230     8.7026     8.1346 C.3     
  31 H31           -0.9517     1.9165     0.0170 H       
  32 H32           -0.9324    -0.5455     0.0084 H       
  33 H33            3.2168    -0.6817    -0.0320 H       
  34 H34            4.6107     3.7337    -0.0232 H       
  35 H35            3.6180     5.7845    -0.5174 H       
  36 H36            1.8487     5.9785    -0.4995 H       
  37 H37            5.0148     6.6289     3.8698 H       
  38 H38            0.7553     7.0881     3.9157 H       
  39 H39            5.0978     7.2143     5.5655 H       
  40 H40            5.2332     8.0084     7.8676 H       
  41 H41            0.8394     7.6930     5.6086 H       
  42 H42            1.1348     9.3218    10.3846 H       
  43 H43           -0.9779     7.7549     8.4226 H       
  44 H44           -0.9376     9.5049     8.7449 H       
  45 H45           -0.7313     8.9010     7.0833 H       
@<TRIPOS>BOND
   1    1    2 ar
   2    1    6 ar
   3    1   31 1
   4    2    3 ar
   5    2   32 1
   6    3    4 ar
   7    4    5 ar
   8    4   33 1
   9    5    6 ar
  10    5    8 1
  11    6    7 1
  12    7   10 am
  13    7   11 2
  14    8    9 2
  15    9   10 1
  16    9   34 1
  17   10   12 1
  18   12   13 1
  19   12   35 1
  20   12   36 1
  21   13   15 ar
  22   13   14 ar
  23   14   18 ar
  24   14   25 1
  25   15   16 ar
  26   15   24 1
  27   16   17 ar
  28   16   37 1
  29   17   18 ar
  30   17   19 1
  31   18   38 1
  32   19   20 ar
  33   19   23 ar
  34   20   21 ar
  35   20   39 1
  36   21   27 ar
  37   21   40 1
  38   22   23 ar
  39   22   27 ar
  40   22   26 1
  41   23   41 1
  42   26   29 1
  43   26   30 1
  44   27   28 1
  45   28   29 2
  46   29   42 1
  47   30   43 1
  48   30   44 1
  49   30   45 1

#	End of record

