#	Name: ASD01811682
#	Creating user name:	WinNT
#	Creation time:	15. 06. 2019 19:27

#	Modifying user name:	WinNT
#	Modification time:	15. 06. 2019 19:27

#	Program:	/corina/corina34_cracker 3.40 0067  02.08.2006

@<TRIPOS>MOLECULE
ASD01811682
  57   61    0    0    0
SMALL
NO_CHARGES


@<TRIPOS>ATOM
   1 C1            -0.0167     1.3816     0.0096 C.ar    
   2 C2             0.0021    -0.0041     0.0020 C.ar    
   3 C3            -1.1845    -0.7157     0.0095 C.ar    
   4 C4            -2.3943    -0.0531     0.0241 C.ar    
   5 C5            -2.4221     1.3429     0.0318 C.ar    
   6 C6            -1.2191     2.0523     0.0305 C.ar    
   7 Cl7            1.4742     2.2709     0.0002 Cl      
   8 C8             1.3183    -0.7377    -0.0149 C.3     
   9 C9            -1.1551    -2.2224     0.0011 C.3     
  10 C10           -1.0080    -2.7298     1.4125 C.ar    
  11 C11           -2.1332    -2.9861     2.1743 C.ar    
  12 C12           -2.0016    -3.4507     3.4683 C.ar    
  13 C13           -0.7380    -3.6609     4.0038 C.ar    
  14 C14            0.3898    -3.4032     3.2362 C.ar    
  15 C15            0.2517    -2.9436     1.9411 C.ar    
  16 N16           -0.6012    -4.1321     5.3170 N.pl3   
  17 C17            0.5644    -4.3781     5.9569 C.2     
  18 C18            0.2661    -4.8181     7.2012 C.2     
  19 C19           -1.1273    -4.8422     7.3271 C.2     
  20 N20           -1.6476    -4.4256     6.2008 N.2     
  21 C21           -3.5323     2.3147     0.0472 C.2     
  22 N22           -3.0526     3.5704     0.0495 N.am    
  23 C23           -1.5863     3.5151     0.0400 C.3     
  24 O24           -4.7120     2.0216     0.0560 O.2     
  25 C25           -3.8604     4.7924     0.0627 C.3     
  26 C26           -4.7322     4.8140     1.3198 C.3     
  27 C27           -5.5759     6.0903     1.3336 C.3     
  28 C28           -6.4699     6.1241     0.0923 C.3     
  29 C29           -5.5981     6.1025    -1.1648 C.3     
  30 C30           -4.7544     4.8262    -1.1785 C.3     
  31 O31           -3.8973     4.7824     2.4791 O.3     
  32 H32           -3.3179    -0.6128     0.0291 H       
  33 H33            1.6458    -0.9201     1.0086 H       
  34 H34            1.1973    -1.6892    -0.5327 H       
  35 H35            2.0639    -0.1345    -0.5329 H       
  36 H36           -2.0833    -2.6016    -0.4264 H       
  37 H37           -0.3120    -2.5660    -0.5982 H       
  38 H38           -3.1159    -2.8223     1.7573 H       
  39 H39           -2.8807    -3.6500     4.0631 H       
  40 H40            1.3741    -3.5654     3.6502 H       
  41 H41            1.1287    -2.7429     1.3435 H       
  42 H42            1.5555    -4.2475     5.5480 H       
  43 H43            0.9778    -5.1008     7.9628 H       
  44 H44           -1.6784    -5.1476     8.2043 H       
  45 H45           -1.1876     3.9961     0.9332 H       
  46 H46           -1.1988     4.0038    -0.8539 H       
  47 H47           -3.2035     5.6622     0.0611 H       
  48 H48           -5.3891     3.9442     1.3214 H       
  49 H49           -6.1970     6.1057     2.2292 H       
  50 H50           -4.9190     6.9601     1.3320 H       
  51 H51           -7.1268     5.2543     0.0939 H       
  52 H52           -7.0709     7.0334     0.1021 H       
  53 H53           -6.2349     6.1266    -2.0491 H       
  54 H54           -4.9411     6.9723    -1.1664 H       
  55 H55           -4.1333     4.8109    -2.0741 H       
  56 H56           -5.4113     3.9564    -1.1770 H       
  57 H57           -4.3839     4.7939     3.3147 H       
@<TRIPOS>BOND
   1    1    2 ar
   2    1    7 1
   3    1    6 ar
   4    2    3 ar
   5    2    8 1
   6    3    4 ar
   7    3    9 1
   8    4    5 ar
   9    4   32 1
  10    5    6 ar
  11    5   21 1
  12    6   23 1
  13    8   33 1
  14    8   34 1
  15    8   35 1
  16    9   10 1
  17    9   36 1
  18    9   37 1
  19   10   11 ar
  20   10   15 ar
  21   11   12 ar
  22   11   38 1
  23   12   13 ar
  24   12   39 1
  25   13   14 ar
  26   13   16 1
  27   14   15 ar
  28   14   40 1
  29   15   41 1
  30   16   17 1
  31   16   20 1
  32   17   18 2
  33   17   42 1
  34   18   19 1
  35   18   43 1
  36   19   20 2
  37   19   44 1
  38   21   22 am
  39   21   24 2
  40   22   23 1
  41   22   25 1
  42   23   45 1
  43   23   46 1
  44   25   26 1
  45   25   30 1
  46   25   47 1
  47   26   27 1
  48   26   31 1
  49   26   48 1
  50   27   28 1
  51   27   49 1
  52   27   50 1
  53   28   29 1
  54   28   51 1
  55   28   52 1
  56   29   30 1
  57   29   53 1
  58   29   54 1
  59   30   55 1
  60   30   56 1
  61   31   57 1

#	End of record

