#	Name: ASD01917612
#	Creating user name:	WinNT
#	Creation time:	15. 06. 2019 20:09

#	Modifying user name:	WinNT
#	Modification time:	15. 06. 2019 20:09

#	Program:	/corina/corina34_cracker 3.40 0067  02.08.2006

@<TRIPOS>MOLECULE
ASD01917612
  56   60    0    0    0
SMALL
NO_CHARGES


@<TRIPOS>ATOM
   1 C1            -0.0166     1.3756     0.0096 C.ar    
   2 C2             0.0021    -0.0041     0.0020 C.ar    
   3 C3             1.2194    -0.6823    -0.0132 C.ar    
   4 C4             2.4130     0.0370    -0.0207 C.ar    
   5 C5             1.2446    -2.1657    -0.0209 C.2     
   6 N6             0.1683    -2.9780    -0.0150 N.2     
   7 C7             2.3561    -2.9466    -0.0411 C.2     
   8 N8             1.9244    -4.2459    -0.0412 N.pl3   
   9 C9             0.5659    -4.2197    -0.0250 C.2     
  10 C10            2.7339    -5.3914    -0.0592 C.ar    
  11 C11            3.7522    -5.5081    -0.9954 C.ar    
  12 C12            4.5482    -6.6366    -1.0116 C.ar    
  13 C13            3.3194    -7.5341     0.8437 C.ar    
  14 C14            2.5214    -6.4071     0.8629 C.ar    
  15 C15           -0.3342    -5.4284    -0.0184 C.3     
  16 C16           -0.6173    -5.8361     1.4045 C.2     
  17 N17           -1.4058    -6.8997     1.6565 N.am    
  18 O18           -0.1357    -5.2071     2.3228 O.2     
  19 C19           -1.6949    -7.3147     3.0376 C.3     
  20 C20           -2.0049    -7.6725     0.5578 C.3     
  21 C21           -3.5095    -7.8021     0.8178 C.3     
  22 N22           -3.7251    -8.3602     2.1594 N.3     
  23 C23           -3.2124    -7.4591     3.1949 C.3     
  24 C24           -5.0697    -8.6447     2.3706 C.ar    
  25 C25           -5.4892    -9.1841     3.5865 C.ar    
  26 N26           -5.9592    -8.3995     1.4198 N.ar    
  27 N27           -7.2089    -8.6472     1.5754 N.ar    
  28 C28           -7.6913    -9.1612     2.6890 C.ar    
  29 C29           -6.8398    -9.4490     3.7469 C.ar    
  30 C30            4.3308    -7.6515    -0.0949 C.ar    
  31 F31            5.1099    -8.7551    -0.1128 F       
  32 F32            1.1494     3.4374     0.0100 F       
  33 C33            2.3849     1.4166    -0.0131 C.ar    
  34 C34            1.1724     2.0866     0.0021 C.ar    
  35 H35           -0.9596     1.9021     0.0169 H       
  36 H36           -0.9253    -0.5575     0.0082 H       
  37 H37            3.3587    -0.4845    -0.0322 H       
  38 H38            3.3816    -2.6081    -0.0545 H       
  39 H39            3.9216    -4.7170    -1.7109 H       
  40 H40            5.3405    -6.7277    -1.7399 H       
  41 H41            3.1544    -8.3245     1.5609 H       
  42 H42            1.7328    -6.3158     1.5951 H       
  43 H43           -1.2710    -5.1865    -0.5203 H       
  44 H44            0.1565    -6.2496    -0.5409 H       
  45 H45           -1.2131    -8.2710     3.2411 H       
  46 H46           -1.3250    -6.5601     3.7317 H       
  47 H47           -1.8398    -7.1544    -0.3868 H       
  48 H48           -1.5534    -8.6638     0.5187 H       
  49 H49           -3.9757    -6.8189     0.7536 H       
  50 H50           -3.9516    -8.4640     0.0731 H       
  51 H51           -3.4342    -7.8722     4.1789 H       
  52 H52           -3.6864    -6.4827     3.0946 H       
  53 H53           -4.7836    -9.3891     4.3779 H       
  54 H54           -8.7500    -9.3545     2.7801 H       
  55 H55           -7.2183    -9.8707     4.6663 H       
  56 H56            3.3094     1.9748    -0.0189 H       
@<TRIPOS>BOND
   1    1    2 ar
   2    1   34 ar
   3    1   35 1
   4    2    3 ar
   5    2   36 1
   6    3    4 ar
   7    3    5 1
   8    4   33 ar
   9    4   37 1
  10    5    6 1
  11    5    7 2
  12    6    9 2
  13    7    8 1
  14    7   38 1
  15    8    9 1
  16    8   10 1
  17    9   15 1
  18   10   11 ar
  19   10   14 ar
  20   11   12 ar
  21   11   39 1
  22   12   30 ar
  23   12   40 1
  24   13   14 ar
  25   13   30 ar
  26   13   41 1
  27   14   42 1
  28   15   16 1
  29   15   43 1
  30   15   44 1
  31   16   17 am
  32   16   18 2
  33   17   19 1
  34   17   20 1
  35   19   23 1
  36   19   45 1
  37   19   46 1
  38   20   21 1
  39   20   47 1
  40   20   48 1
  41   21   22 1
  42   21   49 1
  43   21   50 1
  44   22   23 1
  45   22   24 1
  46   23   51 1
  47   23   52 1
  48   24   25 ar
  49   24   26 ar
  50   25   29 ar
  51   25   53 1
  52   26   27 ar
  53   27   28 ar
  54   28   29 ar
  55   28   54 1
  56   29   55 1
  57   30   31 1
  58   32   34 1
  59   33   34 ar
  60   33   56 1

#	End of record

