#	Name: ASD03731330
#	Creating user name:	WinNT
#	Creation time:	15. 06. 2019 20:45

#	Modifying user name:	WinNT
#	Modification time:	15. 06. 2019 20:45

#	Program:	/corina/corina34_cracker 3.40 0067  02.08.2006

@<TRIPOS>MOLECULE
ASD03731330
  66   73    0    0    0
SMALL
NO_CHARGES


@<TRIPOS>ATOM
   1 C1            -0.0181     1.4736     0.0142 C.2     
   2 C2             0.0015    -0.0044     0.0109 C.ar    
   3 C3             1.2178    -0.6893    -0.0002 C.ar    
   4 C4             1.2291    -2.0688    -0.0027 C.ar    
   5 C5             0.0384    -2.7734     0.0058 C.ar    
   6 C6            -1.1707    -2.1008     0.0163 C.ar    
   7 C7            -1.1960    -0.7215     0.0248 C.ar    
   8 O8             1.0264     2.0954     0.0072 O.2     
   9 N9            -1.1942     2.1319     0.0193 N.am    
  10 C10            0.0584    -4.2803     0.0029 C.3     
  11 O11           -2.0674    -1.5101     6.2876 O.3     
  12 C12           -2.2971    -1.5899     7.7068 C.3     
  13 O13           -2.7959    -2.9269     7.8981 O.3     
  14 C14           -2.2690    -3.6636     6.8762 C.ar    
  15 C15           -1.8221    -2.7919     5.8858 C.ar    
  16 C16           -2.1313    -5.0299     6.7086 C.ar    
  17 C17           -1.5494    -5.5435     5.5535 C.ar    
  18 C18           -1.1144    -4.6630     4.5676 C.ar    
  19 C19           -1.2447    -3.3001     4.7344 C.ar    
  20 O20           -1.3062    -6.8385     5.2015 O.3     
  21 C21           -0.5669    -5.5084     3.4489 C.3     
  22 C22           -1.0925    -6.9121     3.7787 C.3     
  23 N23            0.0762    -4.7710     1.3832 N.am    
  24 C24           -1.0330    -5.0384     2.1011 C.2     
  25 C25            0.9313    -5.4722     3.3866 C.ar    
  26 C26            1.9286    -5.7806     4.2846 C.ar    
  27 C27            3.2561    -5.6408     3.9210 C.ar    
  28 C28            3.5788    -5.1900     2.6539 C.ar    
  29 C29            2.5835    -4.8789     1.7511 C.ar    
  30 C30            1.2445    -5.0171     2.1084 C.ar    
  31 O31           -2.1821    -4.9225     1.7307 O.2     
  32 C32           -1.0594     7.7617     0.6402 C.3     
  33 C33            0.3775     7.8833     1.1901 C.3     
  34 C34            0.6183     6.4862     1.8003 C.3     
  35 C35           -0.2879     5.5538     1.0249 C.ar    
  36 C36           -0.2688     4.1747     0.9128 C.ar    
  37 C37           -1.2149     3.5256     0.1325 C.ar    
  38 C38           -2.1824     4.2648    -0.5362 C.ar    
  39 C39           -2.1978     5.6395    -0.4212 C.ar    
  40 C40           -1.2523     6.2868     0.3580 C.ar    
  41 H41            2.1479    -0.1404    -0.0071 H       
  42 H42            2.1694    -2.5999    -0.0116 H       
  43 H43           -2.0965    -2.6567     0.0221 H       
  44 H44           -2.1404    -0.1976     0.0379 H       
  45 H45           -2.0262     1.6389    -0.0556 H       
  46 H46           -0.8308    -4.6545    -0.5043 H       
  47 H47            0.9490    -4.6308    -0.5188 H       
  48 H48           -1.3654    -1.4467     8.2542 H       
  49 H49           -3.0409    -0.8557     8.0162 H       
  50 H50           -2.4777    -5.7024     7.4794 H       
  51 H51           -0.8957    -2.6275     3.9648 H       
  52 H52           -0.3480    -7.6708     3.5378 H       
  53 H53           -2.0290    -7.1075     3.2562 H       
  54 H54            1.6743    -6.1322     5.2736 H       
  55 H55            4.0386    -5.8833     4.6248 H       
  56 H56            4.6151    -5.0808     2.3701 H       
  57 H57            2.8434    -4.5270     0.7637 H       
  58 H58           -1.7793     8.1016     1.3848 H       
  59 H59           -1.1630     8.3392    -0.2784 H       
  60 H60            1.0850     8.0816     0.3850 H       
  61 H61            0.4349     8.6560     1.9568 H       
  62 H62            1.6604     6.1927     1.6738 H       
  63 H63            0.3492     6.4834     2.8566 H       
  64 H64            0.4847     3.6023     1.4334 H       
  65 H65           -2.9208     3.7643    -1.1451 H       
  66 H66           -2.9501     6.2139    -0.9412 H       
@<TRIPOS>BOND
   1    1    2 1
   2    1    8 2
   3    1    9 am
   4    2    3 ar
   5    2    7 ar
   6    3    4 ar
   7    3   41 1
   8    4    5 ar
   9    4   42 1
  10    5    6 ar
  11    5   10 1
  12    6    7 ar
  13    6   43 1
  14    7   44 1
  15    9   37 1
  16    9   45 1
  17   10   23 1
  18   10   46 1
  19   10   47 1
  20   11   12 1
  21   11   15 1
  22   12   13 1
  23   12   48 1
  24   12   49 1
  25   13   14 1
  26   14   15 ar
  27   14   16 ar
  28   15   19 ar
  29   16   17 ar
  30   16   50 1
  31   17   18 ar
  32   17   20 1
  33   18   19 ar
  34   18   21 1
  35   19   51 1
  36   20   22 1
  37   21   22 1
  38   21   24 1
  39   21   25 1
  40   22   52 1
  41   22   53 1
  42   23   24 am
  43   23   30 1
  44   24   31 2
  45   25   26 ar
  46   25   30 ar
  47   26   27 ar
  48   26   54 1
  49   27   28 ar
  50   27   55 1
  51   28   29 ar
  52   28   56 1
  53   29   30 ar
  54   29   57 1
  55   32   33 1
  56   32   40 1
  57   32   58 1
  58   32   59 1
  59   33   34 1
  60   33   60 1
  61   33   61 1
  62   34   35 1
  63   34   62 1
  64   34   63 1
  65   35   36 ar
  66   35   40 ar
  67   36   37 ar
  68   36   64 1
  69   37   38 ar
  70   38   39 ar
  71   38   65 1
  72   39   40 ar
  73   39   66 1

#	End of record

