#	Name: ASD01883920
#	Creating user name:	WinNT
#	Creation time:	15. 06. 2019 19:47

#	Modifying user name:	WinNT
#	Modification time:	15. 06. 2019 19:47

#	Program:	/corina/corina34_cracker 3.40 0067  02.08.2006

@<TRIPOS>MOLECULE
ASD01883920
  61   63    0    0    0
SMALL
NO_CHARGES


@<TRIPOS>ATOM
   1 C1            -0.0170     1.4024     0.0098 C.2     
   2 C2             0.0021    -0.0041     0.0020 C.2     
   3 C3            -1.2248    -0.6972     0.0105 C.2     
   4 C4            -2.3888    -0.0096     0.0258 C.2     
   5 N5            -2.4080     1.3483     0.0332 N.am    
   6 C6            -1.2688     2.0651     0.0312 C.2     
   7 C7            -3.6953     2.0474     0.0493 C.3     
   8 C8            -4.1297     2.2830     1.4973 C.3     
   9 C9            -5.4741     3.0131     1.5141 C.3     
  10 C10           -5.9685     3.1383     2.9566 C.3     
  11 C11           -5.3042     4.4087     0.9103 C.3     
  12 O12           -1.3143     3.2834     0.0387 O.2     
  13 C13            1.2047     2.1493     0.0021 C.1     
  14 N14            2.1739     2.7419    -0.0040 N.1     
  15 C15            1.2827    -0.7398    -0.0152 C.ar    
  16 C16            1.6464    -1.5377     1.0730 C.ar    
  17 C17            2.8407    -2.2222     1.0541 C.ar    
  18 C18            3.6857    -2.1199    -0.0471 C.ar    
  19 C19            3.3264    -1.3257    -1.1322 C.ar    
  20 C20            2.1304    -0.6441    -1.1221 C.ar    
  21 N21            4.8928    -2.8129    -0.0631 N.pl3   
  22 C22            5.7834    -2.7062    -1.2214 C.3     
  23 C23            7.0316    -3.5590    -0.9853 C.3     
  24 C24            7.9617    -3.4476    -2.1950 C.3     
  25 C25            9.2099    -4.3004    -1.9589 C.3     
  26 C26           10.1427    -4.1916    -3.1667 C.3     
  27 O27            9.8899    -3.8434    -0.7824 O.3     
  28 C28            9.9432    -4.9510     0.1393 C.3     
  29 C29            9.7563    -6.1826    -0.7817 C.3     
  30 O30            8.8278    -5.6727    -1.7657 O.3     
  31 H31           -1.2352    -1.7771     0.0045 H       
  32 H32           -3.3229    -0.5516     0.0318 H       
  33 H33           -3.5947     3.0056    -0.4604 H       
  34 H34           -4.4442     1.4414    -0.4606 H       
  35 H35           -4.2302     1.3248     2.0070 H       
  36 H36           -3.3807     2.8890     2.0073 H       
  37 H37           -6.2007     2.4499     0.9285 H       
  38 H38           -5.2419     3.7015     3.5421 H       
  39 H39           -6.9263     3.6585     2.9685 H       
  40 H40           -6.0896     2.1441     3.3867 H       
  41 H41           -4.5775     4.9719     1.4958 H       
  42 H42           -4.9519     4.3195    -0.1174 H       
  43 H43           -6.2620     4.9288     0.9222 H       
  44 H44            0.9915    -1.6169     1.9281 H       
  45 H45            3.1223    -2.8389     1.8947 H       
  46 H46            3.9845    -1.2477    -1.9850 H       
  47 H47            1.8522    -0.0280    -1.9643 H       
  48 H48            5.1443    -3.3664     0.6927 H       
  49 H49            5.2647    -3.0603    -2.1123 H       
  50 H50            6.0755    -1.6654    -1.3606 H       
  51 H51            7.5503    -3.2049    -0.0944 H       
  52 H52            6.7395    -4.5999    -0.8461 H       
  53 H53            7.4430    -3.8017    -3.0859 H       
  54 H54            8.2537    -2.4068    -2.3342 H       
  55 H55           10.4362    -3.1512    -3.3066 H       
  56 H56           11.0308    -4.7999    -2.9958 H       
  57 H57            9.6255    -4.5462    -4.0583 H       
  58 H58           10.9101    -4.9884     0.6410 H       
  59 H59            9.1332    -4.8869     0.8658 H       
  60 H60           10.7001    -6.4702    -1.2450 H       
  61 H61            9.3222    -7.0182    -0.2326 H       
@<TRIPOS>BOND
   1    1    2 2
   2    1   13 1
   3    1    6 1
   4    2    3 1
   5    2   15 1
   6    3    4 2
   7    3   31 1
   8    4    5 1
   9    4   32 1
  10    5    7 1
  11    5    6 am
  12    6   12 2
  13    7    8 1
  14    7   33 1
  15    7   34 1
  16    8    9 1
  17    8   35 1
  18    8   36 1
  19    9   10 1
  20    9   11 1
  21    9   37 1
  22   10   38 1
  23   10   39 1
  24   10   40 1
  25   11   41 1
  26   11   42 1
  27   11   43 1
  28   13   14 3
  29   15   16 ar
  30   15   20 ar
  31   16   17 ar
  32   16   44 1
  33   17   18 ar
  34   17   45 1
  35   18   19 ar
  36   18   21 1
  37   19   20 ar
  38   19   46 1
  39   20   47 1
  40   21   22 1
  41   21   48 1
  42   22   23 1
  43   22   49 1
  44   22   50 1
  45   23   24 1
  46   23   51 1
  47   23   52 1
  48   24   25 1
  49   24   53 1
  50   24   54 1
  51   25   26 1
  52   25   27 1
  53   25   30 1
  54   26   55 1
  55   26   56 1
  56   26   57 1
  57   27   28 1
  58   28   29 1
  59   28   58 1
  60   28   59 1
  61   29   30 1
  62   29   60 1
  63   29   61 1

#	End of record

