#	Name: ASD03080071
#	Creating user name:	WinNT
#	Creation time:	15. 06. 2019 20:26

#	Modifying user name:	WinNT
#	Modification time:	15. 06. 2019 20:26

#	Program:	/corina/corina34_cracker 3.40 0067  02.08.2006

@<TRIPOS>MOLECULE
ASD03080071
  26   28    0    0    0
SMALL
NO_CHARGES


@<TRIPOS>ATOM
   1 O1            -0.0144     1.2085     0.0087 O.3     
   2 N2             0.0021    -0.0041     0.0020 N.2     
   3 C3             1.2350    -0.4422    -0.0121 C.2     
   4 N4             2.0458     0.6365    -0.0141 N.2     
   5 C5             1.2411     1.6829    -0.0008 C.2     
   6 C6             1.6452     3.1040     0.0023 C.ar    
   7 C7             0.6747     4.1097     0.0167 C.ar    
   8 C8             1.0622     5.4390     0.0194 C.ar    
   9 C9             2.4067     5.7697     0.0079 C.ar    
  10 C10            3.3700     4.7765    -0.0064 C.ar    
  11 C11            2.9981     3.4483    -0.0034 C.ar    
  12 F12            0.1275     6.4143     0.0328 F       
  13 C13            3.0155    -2.1949    -0.0376 C.ar    
  14 C14            1.6627    -1.8634    -0.0234 C.ar    
  15 C15            0.7144    -2.8901    -0.0194 C.ar    
  16 C16            1.1636    -4.1990    -0.0299 C.ar    
  17 C17            2.5255    -4.4472    -0.0438 C.ar    
  18 N18            3.3972    -3.4557    -0.0468 N.ar    
  19 Cl19           3.0957    -6.0868    -0.0570 Cl      
  20 F20           -0.6369     3.7860     0.0275 F       
  21 H21            2.7049     6.8077     0.0097 H       
  22 H22            4.4168     5.0421    -0.0153 H       
  23 H23            3.7526     2.6756    -0.0097 H       
  24 H24            3.7583    -1.4110    -0.0453 H       
  25 H25           -0.3423    -2.6675    -0.0081 H       
  26 H26            0.4594    -5.0178    -0.0269 H       
@<TRIPOS>BOND
   1    1    2 1
   2    1    5 1
   3    2    3 2
   4    3    4 1
   5    3   14 1
   6    4    5 2
   7    5    6 1
   8    6    7 ar
   9    6   11 ar
  10    7    8 ar
  11    7   20 1
  12    8    9 ar
  13    8   12 1
  14    9   10 ar
  15    9   21 1
  16   10   11 ar
  17   10   22 1
  18   11   23 1
  19   13   14 ar
  20   13   18 ar
  21   13   24 1
  22   14   15 ar
  23   15   16 ar
  24   15   25 1
  25   16   17 ar
  26   16   26 1
  27   17   18 ar
  28   17   19 1

#	End of record

