#	Name: ASD01120107
#	Creating user name:	WinNT
#	Creation time:	15. 06. 2019 18:59

#	Modifying user name:	WinNT
#	Modification time:	15. 06. 2019 18:59

#	Program:	/corina/corina34_cracker 3.40 0067  02.08.2006

@<TRIPOS>MOLECULE
ASD01120107
  31   33    0    0    0
SMALL
NO_CHARGES


@<TRIPOS>ATOM
   1 C1            -0.0213     1.3881    -0.0723 C.ar    
   2 C2            -0.0743     0.1556     0.5619 C.ar    
   3 C3            -1.2590    -0.5530     0.5966 C.ar    
   4 C4            -2.3977    -0.0312    -0.0033 C.ar    
   5 C5            -2.3438     1.2030    -0.6376 C.ar    
   6 C6            -1.1595     1.9127    -0.6668 C.ar    
   7 N7            -3.5990    -0.7492     0.0310 N.pl3   
   8 C8            -4.8050    -0.0767     0.1508 C.2     
   9 N9            -5.9786    -0.6243     0.0768 N.2     
  10 C10           -7.0291     0.1827     0.2170 C.2     
  11 C11           -6.7349     1.4785     0.4198 C.2     
  12 S12           -4.9816     1.6521     0.4344 S.3     
  13 C13           -8.4252    -0.3136     0.1532 C.ar    
  14 C14           -8.6772    -1.6680    -0.0593 C.ar    
  15 C15           -9.9783    -2.1242    -0.1172 C.ar    
  16 C16          -11.0314    -1.2403     0.0352 C.ar    
  17 C17          -10.7874     0.1049     0.2463 C.ar    
  18 C18           -9.4903     0.5716     0.3114 C.ar    
  19 O19            1.1459     2.0852    -0.1064 O.3     
  20 H20            0.8112    -0.2500     1.0284 H       
  21 H21           -1.3000    -1.5130     1.0899 H       
  22 H22           -3.2288     1.6096    -1.1044 H       
  23 H23           -1.1174     2.8726    -1.1601 H       
  24 H24           -3.5873    -1.7172    -0.0290 H       
  25 H25           -7.4506     2.2760     0.5546 H       
  26 H26           -7.8558    -2.3589    -0.1787 H       
  27 H27          -10.1748    -3.1733    -0.2822 H       
  28 H28          -12.0481    -1.6017    -0.0112 H       
  29 H29          -11.6134     0.7905     0.3646 H       
  30 H30           -9.3008     1.6219     0.4766 H       
  31 H31            1.6998     1.8875    -0.8740 H       
@<TRIPOS>BOND
   1    1    2 ar
   2    1   19 1
   3    1    6 ar
   4    2    3 ar
   5    2   20 1
   6    3    4 ar
   7    3   21 1
   8    4    5 ar
   9    4    7 1
  10    5    6 ar
  11    5   22 1
  12    6   23 1
  13    7    8 1
  14    7   24 1
  15    8    9 2
  16    8   12 1
  17    9   10 1
  18   10   11 2
  19   10   13 1
  20   11   12 1
  21   11   25 1
  22   13   14 ar
  23   13   18 ar
  24   14   15 ar
  25   14   26 1
  26   15   16 ar
  27   15   27 1
  28   16   17 ar
  29   16   28 1
  30   17   18 ar
  31   17   29 1
  32   18   30 1
  33   19   31 1

#	End of record

