#	Name: ASD01811127
#	Creating user name:	WinNT
#	Creation time:	15. 06. 2019 19:26

#	Modifying user name:	WinNT
#	Modification time:	15. 06. 2019 19:26

#	Program:	/corina/corina34_cracker 3.40 0067  02.08.2006

@<TRIPOS>MOLECULE
ASD01811127
  49   52    0    0    0
SMALL
NO_CHARGES


@<TRIPOS>ATOM
   1 C1             5.7982     3.0812    -0.5985 C.2     
   2 C2             6.1169     1.7994    -0.1300 C.2     
   3 C3             5.1533     0.8339    -0.1076 C.2     
   4 C4             3.8574     1.1411    -0.5546 C.2     
   5 N5             3.5742     2.4011    -1.0073 N.am    
   6 C6             4.5452     3.3580    -1.0247 C.2     
   7 C7             2.8654     0.1506    -0.5327 C.2     
   8 C8             1.6035     0.4385    -0.9651 C.2     
   9 C9             1.3156     1.7354    -1.4294 C.2     
  10 C10            2.3348     2.7095    -1.4395 C.2     
  11 O11            2.0941     3.8359    -1.8397 O.2     
  12 C12           -0.0306     2.0698    -1.8993 C.2     
  13 O13           -0.3001     3.3149    -2.3432 O.3     
  14 O14           -0.9056     1.2250    -1.8894 O.2     
  15 C15            3.1929    -1.2325    -0.0318 C.3     
  16 N16            3.5398    -2.0955    -1.1688 N.3     
  17 C17            4.7617    -1.6209    -1.8377 C.3     
  18 C18            5.2761    -2.7317    -2.7539 C.3     
  19 C19            4.1574    -3.2361    -3.6289 C.ar    
  20 C20            2.8359    -2.9776    -3.3347 C.ar    
  21 C21            2.4332    -2.1713    -2.1279 C.3     
  22 C22            4.4814    -3.9786    -4.7545 C.ar    
  23 C23            3.4873    -4.4615    -5.5815 C.ar    
  24 C24            2.1614    -4.2044    -5.2856 C.ar    
  25 C25            1.8379    -3.4656    -4.1657 C.ar    
  26 C26            1.2455    -2.8224    -1.4674 C.2     
  27 O27            1.4128    -3.6327    -0.5868 O.2     
  28 O28            0.0016    -2.5024    -1.8574 O.3     
  29 C29           -1.0945    -3.1688    -1.1771 C.3     
  30 H30            6.5548     3.8517    -0.6149 H       
  31 H31            7.1176     1.5775     0.2102 H       
  32 H32            5.3849    -0.1583     0.2505 H       
  33 H33            4.3108     4.3492    -1.3840 H       
  34 H34            0.8349    -0.3201    -0.9514 H       
  35 H35           -1.2029     3.4882    -2.6432 H       
  36 H36            4.0375    -1.1796     0.6552 H       
  37 H37            2.3278    -1.6453     0.4870 H       
  38 H38            4.5345    -0.7341    -2.4293 H       
  39 H39            5.5189    -1.3823    -1.0908 H       
  40 H40            6.0779    -2.3415    -3.3807 H       
  41 H41            5.6594    -3.5524    -2.1476 H       
  42 H42            2.1594    -1.1642    -2.4425 H       
  43 H43            5.5171    -4.1797    -4.9855 H       
  44 H44            3.7446    -5.0384    -6.4575 H       
  45 H45            1.3805    -4.5811    -5.9296 H       
  46 H46            0.8019    -3.2656    -3.9353 H       
  47 H47           -1.0104    -4.2460    -1.3214 H       
  48 H48           -1.0536    -2.9406    -0.1121 H       
  49 H49           -2.0423    -2.8202    -1.5873 H       
@<TRIPOS>BOND
   1    1    2 1
   2    1    6 2
   3    1   30 1
   4    2    3 2
   5    2   31 1
   6    3    4 1
   7    3   32 1
   8    4    5 1
   9    4    7 2
  10    5    6 1
  11    5   10 am
  12    6   33 1
  13    7    8 1
  14    7   15 1
  15    8    9 2
  16    8   34 1
  17    9   10 1
  18    9   12 1
  19   10   11 2
  20   12   13 1
  21   12   14 2
  22   13   35 1
  23   15   16 1
  24   15   36 1
  25   15   37 1
  26   16   17 1
  27   16   21 1
  28   17   18 1
  29   17   38 1
  30   17   39 1
  31   18   19 1
  32   18   40 1
  33   18   41 1
  34   19   20 ar
  35   19   22 ar
  36   20   21 1
  37   20   25 ar
  38   21   26 1
  39   21   42 1
  40   22   23 ar
  41   22   43 1
  42   23   24 ar
  43   23   44 1
  44   24   25 ar
  45   24   45 1
  46   25   46 1
  47   26   27 2
  48   26   28 1
  49   28   29 1
  50   29   47 1
  51   29   48 1
  52   29   49 1

#	End of record

