#	Name: ASD01913858
#	Creating user name:	WinNT
#	Creation time:	15. 06. 2019 20:02

#	Modifying user name:	WinNT
#	Modification time:	15. 06. 2019 20:02

#	Program:	/corina/corina34_cracker 3.40 0067  02.08.2006

@<TRIPOS>MOLECULE
ASD01913858
  46   49    0    0    0
SMALL
NO_CHARGES


@<TRIPOS>ATOM
   1 C1            -0.0173     1.4278     0.0099 C.ar    
   2 C2             0.0021    -0.0041     0.0020 C.1     
   3 C3             0.0180    -1.1779    -0.0044 C.1     
   4 C4             0.0374    -2.6098    -0.0123 C.ar    
   5 C5            -1.1615    -3.3383    -0.0048 C.ar    
   6 C6             0.1560    -5.3344    -0.0290 C.ar    
   7 N7             1.2706    -4.6189    -0.0416 N.ar    
   8 C8             1.2501    -3.3022    -0.0335 C.ar    
   9 C9            -1.0911    -4.7169    -0.0133 C.ar    
  10 C10            1.1812     2.1463     0.0023 C.ar    
  11 C11            1.1547     3.5252     0.0100 C.ar    
  12 C12           -1.2458     3.4925     0.0270 C.ar    
  13 C13           -1.2350     2.1134     0.0194 C.ar    
  14 C14           -0.0549     4.1972     0.0257 C.ar    
  15 N15            0.2331    -6.7250    -0.0390 N.am    
  16 C16           -0.8027    -7.6033    -0.1237 C.2     
  17 N17           -0.3985    -8.8748    -0.3900 N.am    
  18 C18            0.9936    -8.7728    -0.7963 C.3     
  19 C19            1.4368    -7.5361     0.0326 C.3     
  20 O20           -1.9670    -7.2853     0.0235 O.2     
  21 C21           -1.2012   -10.0961    -0.2882 C.3     
  22 C22            1.9518    -9.8908    -0.4433 C.3     
  23 C23            3.3338    -9.4626    -0.9747 C.3     
  24 C24            3.7771    -8.1288    -0.3827 C.3     
  25 C25            2.7181    -7.0325    -0.5911 C.3     
  26 H26           -2.1160    -2.8330     0.0078 H       
  27 H27            2.1798    -2.7527    -0.0436 H       
  28 H28           -1.9938    -5.3097    -0.0076 H       
  29 H29            2.1260     1.6231    -0.0092 H       
  30 H30            2.0801     4.0818     0.0042 H       
  31 H31           -2.1861     4.0238     0.0343 H       
  32 H32           -2.1652     1.5647     0.0204 H       
  33 H33           -0.0695     5.2771     0.0320 H       
  34 H34            1.0540    -8.5441    -1.8603 H       
  35 H35            1.6171    -7.8297     1.0668 H       
  36 H36           -2.2083    -9.8424     0.0426 H       
  37 H37           -1.2504   -10.5809    -1.2632 H       
  38 H38           -0.7422   -10.7737     0.4317 H       
  39 H39            1.9912   -10.0222     0.6380 H       
  40 H40            1.6377   -10.8179    -0.9227 H       
  41 H41            4.0665   -10.2272    -0.7164 H       
  42 H42            3.2848    -9.3711    -2.0597 H       
  43 H43            3.9579    -8.2571     0.6846 H       
  44 H44            4.7050    -7.8185    -0.8631 H       
  45 H45            2.5739    -6.8521    -1.6563 H       
  46 H46            3.0315    -6.1134    -0.0960 H       
@<TRIPOS>BOND
   1    1    2 1
   2    1   10 ar
   3    1   13 ar
   4    2    3 3
   5    3    4 1
   6    4    5 ar
   7    4    8 ar
   8    5    9 ar
   9    5   26 1
  10    6    7 ar
  11    6   15 1
  12    6    9 ar
  13    7    8 ar
  14    8   27 1
  15    9   28 1
  16   10   11 ar
  17   10   29 1
  18   11   14 ar
  19   11   30 1
  20   12   13 ar
  21   12   14 ar
  22   12   31 1
  23   13   32 1
  24   14   33 1
  25   15   16 am
  26   15   19 1
  27   16   17 am
  28   16   20 2
  29   17   18 1
  30   17   21 1
  31   18   19 1
  32   18   22 1
  33   18   34 1
  34   19   25 1
  35   19   35 1
  36   21   36 1
  37   21   37 1
  38   21   38 1
  39   22   23 1
  40   22   39 1
  41   22   40 1
  42   23   24 1
  43   23   41 1
  44   23   42 1
  45   24   25 1
  46   24   43 1
  47   24   44 1
  48   25   45 1
  49   25   46 1

#	End of record

