#	Name: ASD02690012
#	Creating user name:	WinNT
#	Creation time:	15. 06. 2019 20:26

#	Modifying user name:	WinNT
#	Modification time:	15. 06. 2019 20:26

#	Program:	/corina/corina34_cracker 3.40 0067  02.08.2006

@<TRIPOS>MOLECULE
ASD02690012
  69   71    0    0    0
SMALL
NO_CHARGES


@<TRIPOS>ATOM
   1 C1            -0.1033     1.5687    -0.1129 C.3     
   2 N2            -0.0773     0.1007    -0.1373 N.3     
   3 C3             0.5765    -0.3987    -1.3537 C.3     
   4 C4             2.0299     0.0795    -1.3862 C.3     
   5 C5             2.0592     1.6102    -1.3602 C.3     
   6 C6             1.3298     2.1056    -0.1084 C.3     
   7 C7             5.1564     3.8653    -1.8166 C.ar    
   8 C8             3.8288     3.4206    -1.8420 C.ar    
   9 C9             3.4887     2.0862    -1.3316 C.2     
  10 C10            5.4685     5.1122    -2.2939 C.ar    
  11 C11            4.4691     5.9350    -2.8024 C.ar    
  12 C12            3.1491     5.4980    -2.8303 C.ar    
  13 C13            2.8264     4.2529    -2.3554 C.ar    
  14 C14           -1.4316    -0.4522    -0.0028 C.3     
  15 C15           -1.3765    -1.9775    -0.1332 C.3     
  16 N16           -2.7144    -2.5235     0.1326 N.am    
  17 C17           -3.3915    -2.1565     1.3838 C.3     
  18 C18           -3.4240    -0.6292     1.4972 C.3     
  19 C19           -2.0007    -0.0817     1.3688 C.3     
  20 C20           -3.3095    -3.3450    -0.7548 C.2     
  21 C21           -4.5991    -3.9836    -0.4207 C.ar    
  22 C22           -5.5971    -4.0969    -1.3910 C.ar    
  23 C23           -6.7985    -4.6935    -1.0739 C.ar    
  24 C24           -7.0172    -5.1803     0.2058 C.ar    
  25 C25           -6.0299    -5.0700     1.1731 C.ar    
  26 C26           -4.8224    -4.4811     0.8649 C.ar    
  27 O27           -1.1794    -0.6457     2.3931 O.3     
  28 O28            4.3585     1.3671    -0.8870 O.2     
  29 O29            4.7831     7.1680    -3.2731 O.3     
  30 C30            3.7087     7.9615    -3.7811 C.3     
  31 F31           -8.1967    -5.7638     0.5115 F       
  32 O32           -2.7851    -3.5606    -1.8302 O.2     
  33 H33           -0.6265     1.9374    -0.9952 H       
  34 H34           -0.6211     1.9079     0.7843 H       
  35 H35            0.5525    -1.4884    -1.3577 H       
  36 H36            0.0501    -0.0208    -2.2302 H       
  37 H37            2.5605    -0.3094    -0.5171 H       
  38 H38            2.5104    -0.2782    -2.2968 H       
  39 H39            1.5625     1.9992    -2.2491 H       
  40 H40            1.3100     3.1955    -0.1060 H       
  41 H41            1.8493     1.7486     0.7808 H       
  42 H42            5.9325     3.2289    -1.4176 H       
  43 H43            6.4921     5.4561    -2.2748 H       
  44 H44            2.3766     6.1411    -3.2255 H       
  45 H45            1.8010     3.9144    -2.3776 H       
  46 H46           -2.0710    -0.0430    -0.7850 H       
  47 H47           -1.0658    -2.2470    -1.1426 H       
  48 H48           -0.6672    -2.3807     0.5896 H       
  49 H49           -4.4102    -2.5441     1.3753 H       
  50 H50           -2.8465    -2.5743     2.2303 H       
  51 H51           -4.0450    -0.2184     0.7012 H       
  52 H52           -3.8372    -0.3449     2.4650 H       
  53 H53           -2.0180     1.0031     1.4737 H       
  54 H54           -5.4280    -3.7174    -2.3879 H       
  55 H55           -7.5710    -4.7817    -1.8235 H       
  56 H56           -6.2057    -5.4502     2.1686 H       
  57 H57           -4.0540    -4.3957     1.6190 H       
  58 H58           -1.4805    -0.4501     3.2910 H       
  59 H59            3.2355     7.4417    -4.6142 H       
  60 H60            2.9748     8.1272    -2.9924 H       
  61 H61            4.0961     8.9207    -4.1243 H       
  62 C62           12.7915    18.0321     8.3049 C.1     
  63 C63           12.8074    16.8582     8.2984 C.1     
  64 O64           12.7731    19.3869     8.3123 O.3     
  65 O65           12.8258    15.5033     8.2910 O.3     
  66 O66           14.1069    20.0026     8.3029 O.3     
  67 O67           11.4921    14.8876     8.3004 O.3     
  68 H68           14.0937    20.9695     8.3082 H       
  69 H69           11.5052    13.9207     8.2951 H       
@<TRIPOS>BOND
   1    1    2 1
   2    1    6 1
   3    1   33 1
   4    1   34 1
   5    2    3 1
   6    2   14 1
   7    3    4 1
   8    3   35 1
   9    3   36 1
  10    4    5 1
  11    4   37 1
  12    4   38 1
  13    5    6 1
  14    5    9 1
  15    5   39 1
  16    6   40 1
  17    6   41 1
  18    7    8 ar
  19    7   10 ar
  20    7   42 1
  21    8    9 1
  22    8   13 ar
  23    9   28 2
  24   10   11 ar
  25   10   43 1
  26   11   12 ar
  27   11   29 1
  28   12   13 ar
  29   12   44 1
  30   13   45 1
  31   14   15 1
  32   14   19 1
  33   14   46 1
  34   15   16 1
  35   15   47 1
  36   15   48 1
  37   16   17 1
  38   16   20 am
  39   17   18 1
  40   17   49 1
  41   17   50 1
  42   18   19 1
  43   18   51 1
  44   18   52 1
  45   19   27 1
  46   19   53 1
  47   20   21 1
  48   20   32 2
  49   21   22 ar
  50   21   26 ar
  51   22   23 ar
  52   22   54 1
  53   23   24 ar
  54   23   55 1
  55   24   25 ar
  56   24   31 1
  57   25   26 ar
  58   25   56 1
  59   26   57 1
  60   27   58 1
  61   29   30 1
  62   30   59 1
  63   30   60 1
  64   30   61 1
  65   62   63 3
  66   62   64 1
  67   63   65 1
  68   64   66 1
  69   65   67 1
  70   66   68 1
  71   67   69 1

#	End of record

