#	Name: ASD01883165
#	Creating user name:	WinNT
#	Creation time:	15. 06. 2019 19:45

#	Modifying user name:	WinNT
#	Modification time:	15. 06. 2019 19:45

#	Program:	/corina/corina34_cracker 3.40 0067  02.08.2006

@<TRIPOS>MOLECULE
ASD01883165
  42   43    0    0    0
SMALL
NO_CHARGES


@<TRIPOS>ATOM
   1 N1            -0.0162     1.3417     0.0094 N.am    
   2 C2             0.0021    -0.0041     0.0020 C.2     
   3 C3            -1.2161    -0.7274     0.0102 C.2     
   4 C4            -2.4261    -0.0112     0.0261 C.2     
   5 C5            -2.3786     1.3968     0.0332 C.2     
   6 C6            -1.1850     2.0325     0.0299 C.2     
   7 O7             1.0657    -0.6000    -0.0122 O.2     
   8 C8            -1.2151    -2.1594     0.0021 C.1     
   9 N9            -1.2144    -3.2953    -0.0044 N.1     
  10 C10            1.2513     2.0764     0.0013 C.3     
  11 C11            1.6787     2.3399    -1.4440 C.3     
  12 C12            3.0024     3.1072    -1.4525 C.3     
  13 C13            3.4929     3.2619    -2.8935 C.3     
  14 C14            2.7939     4.4907    -0.8334 C.3     
  15 C15           -3.7218    -0.7213     0.0347 C.ar    
  16 C16           -4.5708    -0.6162     1.1391 C.ar    
  17 C17           -5.7778    -1.2797     1.1433 C.ar    
  18 C18           -6.1513    -2.0534     0.0510 C.ar    
  19 C19           -5.3094    -2.1609    -1.0494 C.ar    
  20 C20           -4.1037    -1.4950    -1.0640 C.ar    
  21 O21           -7.3417    -2.7063     0.0591 O.3     
  22 C22           -7.6630    -3.4838    -1.0960 C.3     
  23 F23           -7.6970    -2.6541    -2.2219 F       
  24 F24           -6.6920    -4.4747    -1.2761 F       
  25 H25           -3.2949     1.9683     0.0453 H       
  26 H26           -1.1610     3.1122     0.0354 H       
  27 H27            1.1242     3.0258     0.5214 H       
  28 H28            2.0168     1.4859     0.5046 H       
  29 H29            1.8057     1.3905    -1.9642 H       
  30 H30            0.9132     2.9304    -1.9474 H       
  31 H31            3.7444     2.5579    -0.8731 H       
  32 H32            2.7508     3.8111    -3.4729 H       
  33 H33            4.4359     3.8085    -2.8995 H       
  34 H34            3.6415     2.2762    -3.3345 H       
  35 H35            2.0518     5.0399    -1.4129 H       
  36 H36            2.4444     4.3805     0.1931 H       
  37 H37            3.7369     5.0373    -0.8395 H       
  38 H38           -4.2809    -0.0157     1.9887 H       
  39 H39           -6.4347    -1.1990     1.9968 H       
  40 H40           -5.6031    -2.7634    -1.8962 H       
  41 H41           -3.4501    -1.5788    -1.9197 H       
  42 H42           -8.6382    -3.9512    -0.9596 H       
@<TRIPOS>BOND
   1    1    2 am
   2    1   10 1
   3    1    6 1
   4    2    3 1
   5    2    7 2
   6    3    4 2
   7    3    8 1
   8    4    5 1
   9    4   15 1
  10    5    6 2
  11    5   25 1
  12    6   26 1
  13    8    9 3
  14   10   11 1
  15   10   27 1
  16   10   28 1
  17   11   12 1
  18   11   29 1
  19   11   30 1
  20   12   13 1
  21   12   14 1
  22   12   31 1
  23   13   32 1
  24   13   33 1
  25   13   34 1
  26   14   35 1
  27   14   36 1
  28   14   37 1
  29   15   16 ar
  30   15   20 ar
  31   16   17 ar
  32   16   38 1
  33   17   18 ar
  34   17   39 1
  35   18   19 ar
  36   18   21 1
  37   19   20 ar
  38   19   40 1
  39   20   41 1
  40   21   22 1
  41   22   23 1
  42   22   24 1
  43   22   42 1

#	End of record

