#	Name: ASD01900663
#	Creating user name:	WinNT
#	Creation time:	15. 06. 2019 19:52

#	Modifying user name:	WinNT
#	Modification time:	15. 06. 2019 19:52

#	Program:	/corina/corina34_cracker 3.40 0067  02.08.2006

@<TRIPOS>MOLECULE
ASD01900663
  49   52    0    0    0
SMALL
NO_CHARGES


@<TRIPOS>ATOM
   1 C1            -0.2308     2.3315    -0.4444 C.ar    
   2 C2            -0.3768     0.9527    -0.5345 C.ar    
   3 C3            -1.6314     0.3797    -0.5778 C.ar    
   4 C4            -2.7644     1.1812    -0.5312 C.ar    
   5 C5            -2.6148     2.5720    -0.4447 C.ar    
   6 O6            -3.9972     0.6295    -0.5613 O.3     
   7 C7            -5.0944     1.3631    -0.8147 C.2     
   8 C8            -5.1022     2.7157    -0.7537 C.2     
   9 C9            -3.8440     3.4049    -0.4100 C.2     
  10 C10           -6.3443     0.6645    -1.1752 C.ar    
  11 N11           -7.4434     1.3801    -1.4299 N.ar    
  12 C12           -8.5858     0.8287    -1.7553 C.ar    
  13 C13           -8.6960    -0.5698    -1.8497 C.ar    
  14 C14           -7.5503    -1.3670    -1.5867 C.ar    
  15 C15           -6.3511    -0.7198    -1.2478 C.ar    
  16 C16           -9.9031    -1.1959    -2.1951 C.ar    
  17 C17           -9.9575    -2.5550    -2.2726 C.ar    
  18 C18           -8.8330    -3.3365    -2.0145 C.ar    
  19 C19           -7.6437    -2.7644    -1.6767 C.ar    
  20 C20           -1.3512     3.1449    -0.3939 C.ar    
  21 O21            1.0116     2.8820    -0.4001 O.3     
  22 C22            2.1216     1.9835    -0.4503 C.3     
  23 C23            3.4262     2.7805    -0.3897 C.3     
  24 N24            3.5177     3.4724     0.9030 N.3     
  25 C25            3.8708     2.5354     1.9778 C.3     
  26 C26            4.4753     4.5845     0.8383 C.3     
  27 N27           -3.8127     4.6763    -0.0926 N.2     
  28 O28           -2.6093     5.2608     0.3714 O.3     
  29 H29            0.5001     0.3233    -0.5713 H       
  30 H30           -1.7322    -0.6933    -0.6484 H       
  31 H31           -6.0048     3.2748    -0.9517 H       
  32 H32           -9.4467     1.4506    -1.9516 H       
  33 H33           -5.4565    -1.2880    -1.0400 H       
  34 H34          -10.7836    -0.6043    -2.3978 H       
  35 H35          -10.8879    -3.0348    -2.5383 H       
  36 H36           -8.9054    -4.4119    -2.0832 H       
  37 H37           -6.7797    -3.3814    -1.4787 H       
  38 H38           -1.2423     4.2171    -0.3235 H       
  39 H39            2.0740     1.2995     0.3970 H       
  40 H40            2.0865     1.4142    -1.3792 H       
  41 H41            4.2721     2.1019    -0.4992 H       
  42 H42            3.4419     3.5137    -1.1961 H       
  43 H43            4.8349     2.0768     1.7578 H       
  44 H44            3.9319     3.0737     2.9236 H       
  45 H45            3.1078     1.7603     2.0494 H       
  46 H46            4.1765     5.2759     0.0504 H       
  47 H47            4.4899     5.1075     1.7945 H       
  48 H48            5.4701     4.1951     0.6219 H       
  49 H49           -2.6842     6.2021     0.5802 H       
@<TRIPOS>BOND
   1    1    2 ar
   2    1   21 1
   3    1   20 ar
   4    2    3 ar
   5    2   29 1
   6    3    4 ar
   7    3   30 1
   8    4    5 ar
   9    4    6 1
  10    5   20 ar
  11    5    9 1
  12    6    7 1
  13    7    8 2
  14    7   10 1
  15    8    9 1
  16    8   31 1
  17    9   27 2
  18   10   11 ar
  19   10   15 ar
  20   11   12 ar
  21   12   13 ar
  22   12   32 1
  23   13   14 ar
  24   13   16 ar
  25   14   15 ar
  26   14   19 ar
  27   15   33 1
  28   16   17 ar
  29   16   34 1
  30   17   18 ar
  31   17   35 1
  32   18   19 ar
  33   18   36 1
  34   19   37 1
  35   20   38 1
  36   21   22 1
  37   22   23 1
  38   22   39 1
  39   22   40 1
  40   23   24 1
  41   23   41 1
  42   23   42 1
  43   24   25 1
  44   24   26 1
  45   25   43 1
  46   25   44 1
  47   25   45 1
  48   26   46 1
  49   26   47 1
  50   26   48 1
  51   27   28 1
  52   28   49 1

#	End of record

