#	Name: ASD01911225
#	Creating user name:	WinNT
#	Creation time:	15. 06. 2019 19:57

#	Modifying user name:	WinNT
#	Modification time:	15. 06. 2019 19:57

#	Program:	/corina/corina34_cracker 3.40 0067  02.08.2006

@<TRIPOS>MOLECULE
ASD01911225
  43   46    0    0    0
SMALL
NO_CHARGES


@<TRIPOS>ATOM
   1 C1            -0.0187     1.5277     0.0104 C.3     
   2 C2             0.0021    -0.0041     0.0020 C.3     
   3 N3             0.8243    -0.4720     1.1261 N.am    
   4 C4             2.1940     0.0421     1.2616 C.3     
   5 C5             2.1487     1.5734     1.2559 C.3     
   6 C6             1.4185     2.0534    -0.0005 C.3     
   7 C7             0.3314    -1.3558     2.0163 C.2     
   8 O8             1.0202    -1.7345     2.9399 O.2     
   9 C9            -1.0756    -1.8736     1.8639 C.3     
  10 C10           -1.4863    -2.8727     2.9585 C.3     
  11 C11           -2.8609    -2.1834     2.9619 C.3     
  12 C12           -2.1452    -0.9281     2.4357 C.3     
  13 C13            3.5537     2.1182     1.2603 C.2     
  14 N14            4.0846     2.8939     2.1724 N.2     
  15 C15            5.3516     3.1243     1.7604 C.2     
  16 N16            5.5142     2.4815     0.6338 N.2     
  17 O17            4.4944     1.8959     0.3370 O.3     
  18 C18            6.3678     3.9530     2.4570 C.ar    
  19 N19            6.0581     4.5502     3.5998 N.ar    
  20 C20            6.9300     5.2937     4.2491 C.ar    
  21 C21            8.2096     5.4799     3.7580 C.ar    
  22 C22            8.5751     4.8729     2.5652 C.ar    
  23 C23            7.6397     4.0920     1.9075 C.ar    
  24 H24           -0.5451     1.8893    -0.8729 H       
  25 H25           -0.5281     1.8797     0.9075 H       
  26 H26           -1.0139    -0.3839     0.1095 H       
  27 H27            0.4296    -0.3586    -0.9359 H       
  28 H28            2.6242    -0.3072     2.2002 H       
  29 H29            2.8003    -0.3086     0.4265 H       
  30 H30            1.6189     1.9249     2.1413 H       
  31 H31            1.9348     1.6808    -0.8852 H       
  32 H32            1.4064     3.1432    -0.0193 H       
  33 H33           -1.2921    -2.2198     0.8533 H       
  34 H34           -1.5174    -3.9070     2.6162 H       
  35 H35           -0.9343    -2.7506     3.8905 H       
  36 H36           -3.5669    -2.6136     2.2515 H       
  37 H37           -3.2845    -2.0589     3.9585 H       
  38 H38           -1.7734    -0.2744     3.2247 H       
  39 H39           -2.7083    -0.3926     1.6712 H       
  40 H40            6.6419     5.7647     5.1773 H       
  41 H41            8.9171     6.0920     4.2975 H       
  42 H42            9.5682     5.0030     2.1611 H       
  43 H43            7.8904     3.6048     0.9768 H       
@<TRIPOS>BOND
   1    1    2 1
   2    1    6 1
   3    1   24 1
   4    1   25 1
   5    2    3 1
   6    2   26 1
   7    2   27 1
   8    3    4 1
   9    3    7 am
  10    4    5 1
  11    4   28 1
  12    4   29 1
  13    5    6 1
  14    5   13 1
  15    5   30 1
  16    6   31 1
  17    6   32 1
  18    7    8 2
  19    7    9 1
  20    9   10 1
  21    9   12 1
  22    9   33 1
  23   10   11 1
  24   10   34 1
  25   10   35 1
  26   11   12 1
  27   11   36 1
  28   11   37 1
  29   12   38 1
  30   12   39 1
  31   13   14 2
  32   13   17 1
  33   14   15 1
  34   15   16 2
  35   15   18 1
  36   16   17 1
  37   18   19 ar
  38   18   23 ar
  39   19   20 ar
  40   20   21 ar
  41   20   40 1
  42   21   22 ar
  43   21   41 1
  44   22   23 ar
  45   22   42 1
  46   23   43 1

#	End of record

