#	Name: ASD01884601
#	Creating user name:	WinNT
#	Creation time:	15. 06. 2019 19:48

#	Modifying user name:	WinNT
#	Modification time:	15. 06. 2019 19:48

#	Program:	/corina/corina34_cracker 3.40 0067  02.08.2006

@<TRIPOS>MOLECULE
ASD01884601
  48   50    0    0    0
SMALL
NO_CHARGES


@<TRIPOS>ATOM
   1 C1             0.7781     1.0541     1.9459 C.2     
   2 C2             0.5024    -0.1541     1.3778 C.2     
   3 C3             1.3002    -0.6138     0.3181 C.2     
   4 C4             2.3293     0.1401    -0.1283 C.2     
   5 N5             2.6040     1.3489     0.4413 N.am    
   6 C6             1.8555     1.8149     1.4592 C.2     
   7 O7             2.1126     2.8974     1.9594 O.2     
   8 C8             3.6351     2.0844    -0.0196 C.2     
   9 C9             1.0096    -1.9472    -0.3210 C.3     
  10 C10            1.6826    -3.0401     0.4688 C.ar    
  11 C11            1.0106    -3.6529     1.5103 C.ar    
  12 C12            1.6253    -4.6550     2.2358 C.ar    
  13 C13            2.9179    -5.0464     1.9186 C.ar    
  14 C14            3.5900    -4.4300     0.8731 C.ar    
  15 C15            2.9688    -3.4323     0.1471 C.ar    
  16 O16            3.5249    -6.0316     2.6311 O.3     
  17 C17            4.8563    -6.3828     2.2487 C.3     
  18 N18            3.5180     3.4237    -0.1149 N.am    
  19 O19            4.6701     1.5401    -0.3491 O.2     
  20 C20            2.1947     4.0346    -0.2627 C.3     
  21 C21            4.6603     4.2306    -0.0726 C.ar    
  22 C22            4.5375     5.6132    -0.1148 C.ar    
  23 C23            5.6670     6.4069    -0.0730 C.ar    
  24 C24            6.9192     5.8262     0.0103 C.ar    
  25 C25            7.0449     4.4497     0.0521 C.ar    
  26 C26            5.9189     3.6506     0.0173 C.ar    
  27 N27            8.1277     6.6798     0.0545 N.pl3   
  28 O28            8.0186     7.8923     0.0174 O.2     
  29 O29            9.2313     6.1696     0.1279 O.2     
  30 H30            0.1720     1.4253     2.7591 H       
  31 H31           -0.3213    -0.7517     1.7396 H       
  32 H32            2.9404    -0.2180    -0.9435 H       
  33 H33           -0.0669    -2.1176    -0.3328 H       
  34 H34            1.3893    -1.9509    -1.3428 H       
  35 H35            0.0045    -3.3476     1.7570 H       
  36 H36            1.1001    -5.1331     3.0494 H       
  37 H37            4.5963    -4.7329     0.6243 H       
  38 H38            3.4916    -2.9521    -0.6669 H       
  39 H39            5.2221    -7.1796     2.8963 H       
  40 H40            4.8586    -6.7257     1.2140 H       
  41 H41            5.5036    -5.5111     2.3440 H       
  42 H42            1.7302     4.1372     0.7180 H       
  43 H43            2.2978     5.0184    -0.7206 H       
  44 H44            1.5715     3.4028    -0.8956 H       
  45 H45            3.5599     6.0673    -0.1807 H       
  46 H46            5.5722     7.4822    -0.1058 H       
  47 H47            8.0243     3.9992     0.1165 H       
  48 H48            6.0177     2.5757     0.0503 H       
@<TRIPOS>BOND
   1    1    2 2
   2    1    6 1
   3    1   30 1
   4    2    3 1
   5    2   31 1
   6    3    4 2
   7    3    9 1
   8    4    5 1
   9    4   32 1
  10    5    6 am
  11    5    8 am
  12    6    7 2
  13    8   18 am
  14    8   19 2
  15    9   10 1
  16    9   33 1
  17    9   34 1
  18   10   11 ar
  19   10   15 ar
  20   11   12 ar
  21   11   35 1
  22   12   13 ar
  23   12   36 1
  24   13   14 ar
  25   13   16 1
  26   14   15 ar
  27   14   37 1
  28   15   38 1
  29   16   17 1
  30   17   39 1
  31   17   40 1
  32   17   41 1
  33   18   20 1
  34   18   21 1
  35   20   42 1
  36   20   43 1
  37   20   44 1
  38   21   22 ar
  39   21   26 ar
  40   22   23 ar
  41   22   45 1
  42   23   24 ar
  43   23   46 1
  44   24   25 ar
  45   24   27 1
  46   25   26 ar
  47   25   47 1
  48   26   48 1
  49   27   28 2
  50   27   29 2

#	End of record

