#	Name: ASD01911180
#	Creating user name:	WinNT
#	Creation time:	15. 06. 2019 19:57

#	Modifying user name:	WinNT
#	Modification time:	15. 06. 2019 19:57

#	Program:	/corina/corina34_cracker 3.40 0067  02.08.2006

@<TRIPOS>MOLECULE
ASD01911180
  41   43    0    0    0
SMALL
NO_CHARGES


@<TRIPOS>ATOM
   1 C1            -0.0308     1.3981     0.0717 C.ar    
   2 C2            -0.0028     0.0208     0.0289 C.ar    
   3 C3            -1.2021    -0.7011     0.0159 C.ar    
   4 C4            -2.4271    -0.0113     0.0467 C.ar    
   5 C5            -2.4332     1.3759     0.0897 C.ar    
   6 C6            -1.2420     2.0736     0.1073 C.ar    
   7 C7            -1.1812    -2.1679    -0.0301 C.2     
   8 N8            -3.6276    -0.7162     0.0338 N.am    
   9 C9            -4.7452    -0.1352    -0.4457 C.2     
  10 C10           -6.0022    -0.9130    -0.5403 C.ar    
  11 O11           -4.7215     1.0268    -0.8005 O.2     
  12 C12           -7.1538    -0.3067    -1.0367 C.ar    
  13 C13           -8.3225    -1.0476    -1.1196 C.ar    
  14 C14           -8.2984    -2.3692    -0.7029 C.ar    
  15 C15           -7.1163    -2.9077    -0.2194 C.ar    
  16 N16           -6.0204    -2.1837    -0.1562 N.ar    
  17 C17            0.0002    -2.8271    -0.0601 C.2     
  18 Cl18           1.4573     2.2919     0.0884 Cl      
  19 C19            0.0205    -4.2435    -0.1045 C.2     
  20 O20           -1.0251    -4.8672    -0.1157 O.2     
  21 C21            1.3120    -4.9641    -0.1373 C.ar    
  22 C22            1.3355    -6.3592    -0.1811 C.ar    
  23 C23            2.5432    -7.0250    -0.2115 C.ar    
  24 C24            3.7297    -6.3131    -0.1986 C.ar    
  25 C25            3.7135    -4.9301    -0.1548 C.ar    
  26 C26            2.5126    -4.2518    -0.1304 C.ar    
  27 H27            0.9428    -0.5006     0.0051 H       
  28 H28           -3.3714     1.9104     0.1131 H       
  29 H29           -1.2532     3.1530     0.1408 H       
  30 H30           -2.1086    -2.7212    -0.0400 H       
  31 H31           -3.6597    -1.6256     0.3699 H       
  32 H32           -7.1365     0.7260    -1.3523 H       
  33 H33           -9.2312    -0.6049    -1.4999 H       
  34 H34           -9.1920    -2.9734    -0.7542 H       
  35 H35           -7.0941    -3.9371     0.1065 H       
  36 H36            0.9277    -2.2738    -0.0502 H       
  37 H37            0.4101    -6.9160    -0.1908 H       
  38 H38            2.5628    -8.1043    -0.2450 H       
  39 H39            4.6726    -6.8392    -0.2226 H       
  40 H40            4.6431    -4.3804    -0.1443 H       
  41 H41            2.5013    -3.1724    -0.0962 H       
@<TRIPOS>BOND
   1    1    2 ar
   2    1   18 1
   3    1    6 ar
   4    2    3 ar
   5    2   27 1
   6    3    7 1
   7    3    4 ar
   8    4    5 ar
   9    4    8 1
  10    5    6 ar
  11    5   28 1
  12    6   29 1
  13    7   17 2
  14    7   30 1
  15    8    9 am
  16    8   31 1
  17    9   10 1
  18    9   11 2
  19   10   12 ar
  20   10   16 ar
  21   12   13 ar
  22   12   32 1
  23   13   14 ar
  24   13   33 1
  25   14   15 ar
  26   14   34 1
  27   15   16 ar
  28   15   35 1
  29   17   19 1
  30   17   36 1
  31   19   20 2
  32   19   21 1
  33   21   22 ar
  34   21   26 ar
  35   22   23 ar
  36   22   37 1
  37   23   24 ar
  38   23   38 1
  39   24   25 ar
  40   24   39 1
  41   25   26 ar
  42   25   40 1
  43   26   41 1

#	End of record

