#	Name: ASD05892001
#	Creating user name:	WinNT
#	Creation time:	15. 06. 2019 21:04

#	Modifying user name:	WinNT
#	Modification time:	15. 06. 2019 21:04

#	Program:	/corina/corina34_cracker 3.40 0067  02.08.2006

@<TRIPOS>MOLECULE
ASD05892001
 141  141    0    0    0
SMALL
NO_CHARGES


@<TRIPOS>ATOM
   1 C1             0.4475     0.7545    -2.0381 C.2     
   2 O2             0.6036    -0.4140    -1.7533 O.2     
   3 N3             2.8628     0.9787    -1.8938 N.3     
   4 C4             1.6359     1.6066    -2.4023 C.3     
   5 C5             1.7228     1.7370    -3.9242 C.3     
   6 C6             2.8499     2.7050    -4.2896 C.3     
   7 C7             3.0165     2.7432    -5.8101 C.3     
   8 C8             2.5051     4.1054    -3.7790 C.3     
   9 C9            -3.1864     1.0370    -2.3171 C.2     
  10 O10           -3.1125     2.0425    -2.9911 O.2     
  11 N11           -0.7895     1.2896    -2.0344 N.am    
  12 C12           -1.9455     0.4597    -1.6863 C.3     
  13 C13           -2.1128     0.4303    -0.1657 C.3     
  14 O14           -2.4336     1.7414     0.3036 O.3     
  15 C15           -6.7943     0.5762    -1.9511 C.2     
  16 O16           -6.6618    -0.1234    -0.9694 O.2     
  17 N17           -4.3784     0.4357    -2.1323 N.am    
  18 C18           -5.5848     0.9969    -2.7456 C.3     
  19 C19           -5.7134     0.4831    -4.1809 C.3     
  20 S20           -4.2575     0.9894    -5.1372 S.3     
  21 C21          -10.4159     0.5881    -2.4485 C.2     
  22 O22          -10.3111     0.9118    -3.6127 O.2     
  23 N23           -8.0234     0.9775    -2.3317 N.am    
  24 C24           -9.1993     0.5686    -1.5594 C.3     
  25 C25           -9.4048     1.5365    -0.3924 C.3     
  26 C26           -8.2257     1.4252     0.5762 C.3     
  27 C27           -8.4282     2.3786     1.7256 C.2     
  28 O28           -9.4181     3.0781     1.7661 O.2     
  29 N29           -7.5092     2.4538     2.7086 N.am    
  30 C30          -14.0395     0.4076    -2.0550 C.2     
  31 O31          -14.0316     0.3116    -0.8460 O.2     
  32 N32          -11.6204     0.2460    -1.9500 N.am    
  33 C33          -12.7799     0.1461    -2.8399 C.3     
  34 C34          -12.8385    -1.2578    -3.4455 C.3     
  35 C35          -13.9528    -1.3155    -4.4923 C.3     
  36 C36          -13.5953    -0.4046    -5.6685 C.3     
  37 C37          -14.1106    -2.7535    -4.9905 C.3     
  38 C38          -17.5989     0.8307    -2.7722 C.2     
  39 O39          -17.4788     0.4066    -3.9021 O.2     
  40 N40          -15.1748     0.7482    -2.6966 N.am    
  41 C41          -16.3761     1.0871    -1.9296 C.3     
  42 C42          -16.3293     2.5645    -1.5350 C.3     
  43 C43          -15.1762     2.7966    -0.5928 C.ar    
  44 C44          -13.9315     3.1294    -1.0943 C.ar    
  45 C45          -12.8727     3.3421    -0.2328 C.ar    
  46 C46          -13.0594     3.2221     1.1366 C.ar    
  47 O47          -12.0196     3.4313     1.9862 O.3     
  48 C48          -14.3095     2.8885     1.6373 C.ar    
  49 C49          -15.3662     2.6818     0.7719 C.ar    
  50 C50          -21.1474     1.6938    -2.6090 C.2     
  51 O51          -20.9782     2.4481    -1.6745 O.2     
  52 N52          -18.8261     1.0726    -2.2702 N.am    
  53 C53          -20.0148     0.8233    -3.0893 C.3     
  54 C54          -20.4168    -0.6482    -2.9704 C.3     
  55 C55          -19.3187    -1.5270    -3.5726 C.3     
  56 C56          -19.7145    -2.9764    -3.4555 C.2     
  57 O57          -20.7709    -3.2768    -2.9410 O.2     
  58 N58          -18.8946    -3.9387    -3.9225 N.am    
  59 C59          -24.1565     1.7989    -1.6079 C.2     
  60 O60          -23.7796     0.7175    -1.2228 O.2     
  61 N61          -22.3482     1.6340    -3.2179 N.am    
  62 C62          -23.4492     2.4802    -2.7510 C.3     
  63 C63          -24.4366     2.7108    -3.8968 C.3     
  64 C64          -23.7524     3.5123    -5.0061 C.3     
  65 C65          -24.7397     3.7429    -6.1519 C.3     
  66 N66          -24.0846     4.5103    -7.2140 N.pl3   
  67 C67          -24.7804     4.8403    -8.3530 C.2     
  68 N68          -26.0229     4.4702    -8.4878 N.2     
  69 N69          -24.1656     5.5605    -9.3497 N.pl3   
  70 O70          -25.2052     2.3935    -1.0176 O.3     
  71 H71            2.9554     0.0348    -2.2381 H       
  72 H72            3.6748     1.5301    -2.1276 H       
  73 H73            1.5233     2.5958    -1.9587 H       
  74 H74            1.9271     0.7597    -4.3616 H       
  75 H75            0.7774     2.1176    -4.3108 H       
  76 H76            3.7799     2.3696    -3.8305 H       
  77 H77            3.8749     3.3642    -6.0660 H       
  78 H78            3.1756     1.7316    -6.1837 H       
  79 H79            2.1177     3.1609    -6.2636 H       
  80 H80            2.3864     4.0782    -2.6958 H       
  81 H81            3.3081     4.7950    -4.0393 H       
  82 H82            1.5751     4.4407    -4.2381 H       
  83 H83           -0.9144     2.2242    -2.2622 H       
  84 H84           -1.7889    -0.5543    -2.0542 H       
  85 H85           -2.9168    -0.2568     0.0981 H       
  86 H86           -1.1835     0.0965     0.2957 H       
  87 H87           -2.5542     1.7977     1.2614 H       
  88 H88           -4.4376    -0.3685    -1.5932 H       
  89 H89           -5.5158     2.0847    -2.7538 H       
  90 H90           -5.7824    -0.6047    -4.1727 H       
  91 H91           -6.6110     0.9006    -4.6372 H       
  92 H92           -4.5034     0.4777    -6.3565 H       
  93 H93           -8.1294     1.5371    -3.1169 H       
  94 H94           -9.0477    -0.4393    -1.1731 H       
  95 H95           -9.4677     2.5560    -0.7728 H       
  96 H96          -10.3284     1.2857     0.1292 H       
  97 H97           -8.1628     0.4057     0.9565 H       
  98 H98           -7.3021     1.6760     0.0545 H       
  99 H99           -6.7174     1.8944     2.6762 H       
 100 H100          -7.6395     3.0675     3.4484 H       
 101 H101         -11.7196     0.0659    -1.0021 H       
 102 H102         -12.6897     0.8827    -3.6383 H       
 103 H103         -11.8840    -1.4899    -3.9177 H       
 104 H104         -13.0411    -1.9846    -2.6588 H       
 105 H105         -14.8890    -0.9811    -4.0453 H       
 106 H106         -14.3421    -0.5162    -6.4546 H       
 107 H107         -13.5741     0.6320    -5.3319 H       
 108 H108         -12.6149    -0.6806    -6.0568 H       
 109 H109         -14.3653    -3.4024    -4.1526 H       
 110 H110         -14.9044    -2.7946    -5.7363 H       
 111 H111         -13.1744    -3.0879    -5.4376 H       
 112 H112         -15.1964     0.7690    -3.6661 H       
 113 H113         -16.4188     0.4721    -1.0307 H       
 114 H114         -16.1973     3.1752    -2.4281 H       
 115 H115         -17.2621     2.8387    -1.0420 H       
 116 H116         -13.7867     3.2227    -2.1605 H       
 117 H117         -11.9004     3.6013    -0.6251 H       
 118 H118         -11.9289     4.3486     2.2786 H       
 119 H119         -14.4572     2.7941     2.7030 H       
 120 H120         -16.3406     2.4265     1.1614 H       
 121 H121         -18.9222     1.4117    -1.3665 H       
 122 H122         -19.7938     1.0566    -4.1308 H       
 123 H123         -20.5516    -0.9042    -1.9195 H       
 124 H124         -21.3506    -0.8143    -3.5075 H       
 125 H125         -19.1839    -1.2710    -4.6235 H       
 126 H126         -18.3849    -1.3609    -3.0355 H       
 127 H127         -18.0497    -3.6985    -4.3340 H       
 128 H128         -19.1494    -4.8716    -3.8471 H       
 129 H129         -22.4836     1.0307    -3.9653 H       
 130 H130         -23.0534     3.4383    -2.4141 H       
 131 H131         -24.7648     1.7497    -4.2926 H       
 132 H132         -25.2991     3.2652    -3.5271 H       
 133 H133         -23.4241     4.4734    -4.6103 H       
 134 H134         -22.8898     2.9579    -5.3758 H       
 135 H135         -25.0679     2.7818    -6.5477 H       
 136 H136         -25.6023     4.2973    -5.7822 H       
 137 H137         -23.1599     4.7857    -7.1137 H       
 138 H138         -26.5138     4.7030    -9.2913 H       
 139 H139         -23.2409     5.8358    -9.2494 H       
 140 H140         -24.6565     5.7932   -10.1533 H       
 141 H141         -25.6265     1.9178    -0.2887 H       
@<TRIPOS>BOND
   1    1    2 2
   2    1    4 1
   3    1   11 am
   4    3    4 1
   5    3   71 1
   6    3   72 1
   7    4    5 1
   8    4   73 1
   9    5    6 1
  10    5   74 1
  11    5   75 1
  12    6    7 1
  13    6    8 1
  14    6   76 1
  15    7   77 1
  16    7   78 1
  17    7   79 1
  18    8   80 1
  19    8   81 1
  20    8   82 1
  21    9   10 2
  22    9   12 1
  23    9   17 am
  24   11   12 1
  25   11   83 1
  26   12   13 1
  27   12   84 1
  28   13   14 1
  29   13   85 1
  30   13   86 1
  31   14   87 1
  32   15   16 2
  33   15   18 1
  34   15   23 am
  35   17   18 1
  36   17   88 1
  37   18   19 1
  38   18   89 1
  39   19   20 1
  40   19   90 1
  41   19   91 1
  42   20   92 1
  43   21   22 2
  44   21   24 1
  45   21   32 am
  46   23   24 1
  47   23   93 1
  48   24   25 1
  49   24   94 1
  50   25   26 1
  51   25   95 1
  52   25   96 1
  53   26   27 1
  54   26   97 1
  55   26   98 1
  56   27   28 2
  57   27   29 am
  58   29   99 1
  59   29  100 1
  60   30   31 2
  61   30   33 1
  62   30   40 am
  63   32   33 1
  64   32  101 1
  65   33   34 1
  66   33  102 1
  67   34   35 1
  68   34  103 1
  69   34  104 1
  70   35   36 1
  71   35   37 1
  72   35  105 1
  73   36  106 1
  74   36  107 1
  75   36  108 1
  76   37  109 1
  77   37  110 1
  78   37  111 1
  79   38   39 2
  80   38   41 1
  81   38   52 am
  82   40   41 1
  83   40  112 1
  84   41   42 1
  85   41  113 1
  86   42   43 1
  87   42  114 1
  88   42  115 1
  89   43   44 ar
  90   43   49 ar
  91   44   45 ar
  92   44  116 1
  93   45   46 ar
  94   45  117 1
  95   46   47 1
  96   46   48 ar
  97   47  118 1
  98   48   49 ar
  99   48  119 1
 100   49  120 1
 101   50   51 2
 102   50   53 1
 103   50   61 am
 104   52   53 1
 105   52  121 1
 106   53   54 1
 107   53  122 1
 108   54   55 1
 109   54  123 1
 110   54  124 1
 111   55   56 1
 112   55  125 1
 113   55  126 1
 114   56   57 2
 115   56   58 am
 116   58  127 1
 117   58  128 1
 118   59   60 2
 119   59   62 1
 120   59   70 1
 121   61   62 1
 122   61  129 1
 123   62   63 1
 124   62  130 1
 125   63   64 1
 126   63  131 1
 127   63  132 1
 128   64   65 1
 129   64  133 1
 130   64  134 1
 131   65   66 1
 132   65  135 1
 133   65  136 1
 134   66   67 1
 135   66  137 1
 136   67   68 2
 137   67   69 1
 138   68  138 1
 139   69  139 1
 140   69  140 1
 141   70  141 1

#	End of record

