#	Name: ASD01028275
#	Creating user name:	WinNT
#	Creation time:	15. 06. 2019 18:56

#	Modifying user name:	WinNT
#	Modification time:	15. 06. 2019 18:56

#	Program:	/corina/corina34_cracker 3.40 0067  02.08.2006

@<TRIPOS>MOLECULE
ASD01028275
  46   50    0    0    0
SMALL
NO_CHARGES


@<TRIPOS>ATOM
   1 C1            -0.0166     1.3760     0.0096 C.ar    
   2 C2             0.0021    -0.0041     0.0020 C.ar    
   3 C3             1.1886     2.0856     0.0019 C.ar    
   4 N4             2.3451     1.4694    -0.0124 N.ar    
   5 C5             2.4264     0.1387    -0.0203 C.ar    
   6 C6             1.2519    -0.6504    -0.0134 C.ar    
   7 C7             3.6832    -0.5160    -0.0353 C.ar    
   8 C8             3.6951    -1.9008    -0.0424 C.ar    
   9 C9             2.4961    -2.6011    -0.0348 C.ar    
  10 N10            1.3369    -1.9849    -0.0204 N.ar    
  11 N11            4.8662     0.2087    -0.0430 N.pl3   
  12 C12            6.1535    -0.4905    -0.0585 C.3     
  13 C13            7.2730     0.5183    -0.0643 C.2     
  14 N14            7.8756     1.0469     1.0232 N.pl3   
  15 C15            8.8299     1.9131     0.5445 C.2     
  16 N16            8.7602     1.8677    -0.7758 N.2     
  17 N17            7.8410     1.0365    -1.1246 N.2     
  18 N18            7.7096     0.8791     2.3994 N.2     
  19 C19            8.4614     1.5452     3.2477 C.2     
  20 C20            9.4490     2.4418     2.7875 C.2     
  21 C21            9.6346     2.6255     1.4537 C.2     
  22 C22            8.2687     1.3523     4.7060 C.ar    
  23 C23            7.2961     0.4699     5.1723 C.ar    
  24 C24            9.0635     2.0486     5.6146 C.ar    
  25 C25            8.8802     1.8649     6.9701 C.ar    
  26 C26            7.9101     0.9913     7.4274 C.ar    
  27 C27            7.1216     0.2940     6.5300 C.ar    
  28 O28           -1.2006     2.0423     0.0188 O.3     
  29 C29           -1.1415     3.4701     0.0263 C.3     
  30 F30           -0.4579     3.9025     1.1677 F       
  31 F31           -0.4687     3.9149    -1.1168 F       
  32 H32           -0.9166    -0.5719     0.0081 H       
  33 H33            1.1657     3.1653     0.0075 H       
  34 H34            4.6340    -2.4344    -0.0541 H       
  35 H35            2.5176    -3.6808    -0.0405 H       
  36 H36            4.8409     1.1784    -0.0382 H       
  37 H37            6.2359    -1.1196     0.8278 H       
  38 H38            6.2191    -1.1112    -0.9520 H       
  39 H39           10.0589     2.9824     3.4963 H       
  40 H40           10.3893     3.3103     1.0958 H       
  41 H41            6.6799    -0.0750     4.4725 H       
  42 H42            9.8217     2.7304     5.2586 H       
  43 H43            9.4957     2.4040     7.6751 H       
  44 H44            7.7706     0.8501     8.4890 H       
  45 H45            6.3653    -0.3865     6.8925 H       
  46 H46           -2.1532     3.8755     0.0333 H       
@<TRIPOS>BOND
   1    1    2 ar
   2    1    3 ar
   3    1   28 1
   4    2    6 ar
   5    2   32 1
   6    3    4 ar
   7    3   33 1
   8    4    5 ar
   9    5    6 ar
  10    5    7 ar
  11    6   10 ar
  12    7    8 ar
  13    7   11 1
  14    8    9 ar
  15    8   34 1
  16    9   10 ar
  17    9   35 1
  18   11   12 1
  19   11   36 1
  20   12   13 1
  21   12   37 1
  22   12   38 1
  23   13   14 1
  24   13   17 2
  25   14   15 1
  26   14   18 1
  27   15   16 2
  28   15   21 1
  29   16   17 1
  30   18   19 2
  31   19   20 1
  32   19   22 1
  33   20   21 2
  34   20   39 1
  35   21   40 1
  36   22   23 ar
  37   22   24 ar
  38   23   27 ar
  39   23   41 1
  40   24   25 ar
  41   24   42 1
  42   25   26 ar
  43   25   43 1
  44   26   27 ar
  45   26   44 1
  46   27   45 1
  47   28   29 1
  48   29   30 1
  49   29   31 1
  50   29   46 1

#	End of record

