#	Name: ASD01148189
#	Creating user name:	WinNT
#	Creation time:	15. 06. 2019 19:02

#	Modifying user name:	WinNT
#	Modification time:	15. 06. 2019 19:02

#	Program:	/corina/corina34_cracker 3.40 0067  02.08.2006

@<TRIPOS>MOLECULE
ASD01148189
  44   46    0    0    0
SMALL
NO_CHARGES


@<TRIPOS>ATOM
   1 C1            -0.0167     1.3777     0.0096 C.ar    
   2 C2             0.0021    -0.0041     0.0020 C.ar    
   3 C3             1.2098    -0.6793    -0.0131 C.ar    
   4 C4             2.3977     0.0294    -0.0206 C.ar    
   5 C5             2.3777     1.4116    -0.0130 C.ar    
   6 C6             1.1710     2.0855     0.0021 C.ar    
   7 C7             3.6718     2.1839    -0.0212 C.3     
   8 O8             4.6969     1.4658    -0.7375 O.3     
   9 C9             3.5417     3.4737    -0.8661 C.3     
  10 C10            4.0451     3.0289    -2.2262 C.2     
  11 N11            4.6710     1.9094    -2.0797 N.2     
  12 C12            3.8525     3.7520    -3.4985 C.ar    
  13 C13            4.3710     3.2279    -4.6854 C.ar    
  14 C14            3.1466     4.9578    -3.5169 C.ar    
  15 C15            2.9670     5.6321    -4.7033 C.ar    
  16 C16            3.4901     5.1106    -5.8893 C.ar    
  17 C17            4.1914     3.9023    -5.8718 C.ar    
  18 C18            3.2969     5.8342    -7.1628 C.2     
  19 O19            2.6828     6.8831    -7.1788 O.2     
  20 N20            3.8014     5.3312    -8.3069 N.am    
  21 C21            4.1233     2.5056     1.4048 C.3     
  22 F22            4.2988     1.3150     2.1182 F       
  23 F23            5.3328     3.2074     1.3639 F       
  24 F24            3.1510     3.2886     2.0363 F       
  25 Cl25           1.2342    -2.4151    -0.0221 Cl      
  26 C26            3.6208     6.0078    -9.4978 C.2     
  27 N27            2.9686     7.1218    -9.5148 N.2     
  28 O28            2.7834     7.8153   -10.7354 O.3     
  29 C29            2.0444     9.0316   -10.6065 C.3     
  30 H30           -0.9593     1.9048     0.0169 H       
  31 H31           -0.9257    -0.5569     0.0082 H       
  32 H32            3.3407    -0.4970    -0.0321 H       
  33 H33            1.1559     3.1654     0.0080 H       
  34 H34            2.5017     3.7948    -0.9245 H       
  35 H35            4.1705     4.2666    -0.4611 H       
  36 H36            4.9131     2.2939    -4.6719 H       
  37 H37            2.7417     5.3605    -2.6002 H       
  38 H38            2.4214     6.5640    -4.7175 H       
  39 H39            4.5960     3.4994    -6.7886 H       
  40 H40            4.2915     4.4942    -8.2941 H       
  41 H41            4.0251     5.6048   -10.4146 H       
  42 H42            1.0540     8.8143   -10.2065 H       
  43 H43            2.5696     9.7058    -9.9300 H       
  44 H44            1.9460     9.5023   -11.5847 H       
@<TRIPOS>BOND
   1    1    2 ar
   2    1    6 ar
   3    1   30 1
   4    2    3 ar
   5    2   31 1
   6    3    4 ar
   7    3   25 1
   8    4    5 ar
   9    4   32 1
  10    5    6 ar
  11    5    7 1
  12    6   33 1
  13    7    8 1
  14    7    9 1
  15    7   21 1
  16    8   11 1
  17    9   10 1
  18    9   34 1
  19    9   35 1
  20   10   11 2
  21   10   12 1
  22   12   13 ar
  23   12   14 ar
  24   13   17 ar
  25   13   36 1
  26   14   15 ar
  27   14   37 1
  28   15   16 ar
  29   15   38 1
  30   16   17 ar
  31   16   18 1
  32   17   39 1
  33   18   19 2
  34   18   20 am
  35   20   26 1
  36   20   40 1
  37   21   22 1
  38   21   23 1
  39   21   24 1
  40   26   27 2
  41   26   41 1
  42   27   28 1
  43   28   29 1
  44   29   42 1
  45   29   43 1
  46   29   44 1

#	End of record

