#	Name: ASD03091875
#	Creating user name:	WinNT
#	Creation time:	15. 06. 2019 20:31

#	Modifying user name:	WinNT
#	Modification time:	15. 06. 2019 20:31

#	Program:	/corina/corina34_cracker 3.40 0067  02.08.2006

@<TRIPOS>MOLECULE
ASD03091875
  42   44    0    0    0
SMALL
NO_CHARGES


@<TRIPOS>ATOM
   1 N1            -0.0104     1.4123     0.0188 N.pl3   
   2 N2            -0.0018     0.0210    -0.1721 N.2     
   3 C3             1.2566    -0.3595    -0.1271 C.2     
   4 N4             2.0253     0.7183     0.0808 N.2     
   5 C5             1.2763     1.7856     0.1698 C.2     
   6 C6            -1.1345     2.2488     0.0418 C.ar    
   7 C7            -1.1170     3.4567    -0.6428 C.ar    
   8 C8            -2.2266     4.2787    -0.6187 C.ar    
   9 C9            -3.3543     3.8998     0.0863 C.ar    
  10 C10           -3.3748     2.6975     0.7691 C.ar    
  11 C11           -2.2702     1.8687     0.7444 C.ar    
  12 C12            1.7666     3.1917     0.4014 C.3     
  13 C13            1.6936     3.5178     1.8944 C.3     
  14 C14            1.7445    -1.7523    -0.2806 C.ar    
  15 C15            0.8396    -2.7905    -0.4937 C.ar    
  16 C16            1.2984    -4.0841    -0.6358 C.ar    
  17 C17            2.6548    -4.3514    -0.5666 C.ar    
  18 C18            3.5575    -3.3238    -0.3547 C.ar    
  19 C19            3.1094    -2.0258    -0.2180 C.ar    
  20 Br20           3.2764    -6.1266    -0.7617 Br      
  21 S21           -4.7677     4.9515     0.1152 S.o2    
  22 O22           -5.4944     4.6149     1.2890 O.2     
  23 O23           -4.2968     6.2641    -0.1578 O.2     
  24 N24           -5.7245     4.5220    -1.1664 N.am    
  25 C25            2.3053     4.8975     2.1455 C.3     
  26 H26           -0.2364     3.7533    -1.1933 H       
  27 H27           -2.2134     5.2185    -1.1506 H       
  28 H28           -4.2570     2.4043     1.3188 H       
  29 H29           -2.2883     0.9279     1.2745 H       
  30 H30            2.7984     3.2774     0.0608 H       
  31 H31            1.1413     3.8906    -0.1542 H       
  32 H32            0.6520     3.5182     2.2157 H       
  33 H33            2.2474     2.7668     2.4579 H       
  34 H34           -0.2189    -2.5830    -0.5471 H       
  35 H35            0.5980    -4.8894    -0.8010 H       
  36 H36            4.6148    -3.5376    -0.3012 H       
  37 H37            3.8150    -1.2240    -0.0578 H       
  38 H38           -5.4497     3.8038    -1.7576 H       
  39 H39           -6.5598     4.9887    -1.3259 H       
  40 H40            3.3469     4.8971     1.8242 H       
  41 H41            1.7516     5.6485     1.5821 H       
  42 H42            2.2533     5.1299     3.2092 H       
@<TRIPOS>BOND
   1    1    2 1
   2    1    5 1
   3    1    6 1
   4    2    3 2
   5    3    4 1
   6    3   14 1
   7    4    5 2
   8    5   12 1
   9    6    7 ar
  10    6   11 ar
  11    7    8 ar
  12    7   26 1
  13    8    9 ar
  14    8   27 1
  15    9   10 ar
  16    9   21 1
  17   10   11 ar
  18   10   28 1
  19   11   29 1
  20   12   13 1
  21   12   30 1
  22   12   31 1
  23   13   25 1
  24   13   32 1
  25   13   33 1
  26   14   15 ar
  27   14   19 ar
  28   15   16 ar
  29   15   34 1
  30   16   17 ar
  31   16   35 1
  32   17   18 ar
  33   17   20 1
  34   18   19 ar
  35   18   36 1
  36   19   37 1
  37   21   22 2
  38   21   23 2
  39   21   24 am
  40   24   38 1
  41   24   39 1
  42   25   40 1
  43   25   41 1
  44   25   42 1

#	End of record

