#	Name: ASD01150888
#	Creating user name:	WinNT
#	Creation time:	15. 06. 2019 19:05

#	Modifying user name:	WinNT
#	Modification time:	15. 06. 2019 19:05

#	Program:	/corina/corina34_cracker 3.40 0067  02.08.2006

@<TRIPOS>MOLECULE
ASD01150888
  52   54    0    0    0
SMALL
NO_CHARGES


@<TRIPOS>ATOM
   1 C1             0.0979     1.4813    -0.0398 C.ar    
   2 C2             0.2410     0.0115    -0.1010 C.2     
   3 N3            -0.8510    -0.7753    -0.0316 N.am    
   4 O4             1.3435    -0.4876    -0.2139 O.2     
   5 C5            -0.7165    -2.1576    -0.0892 C.2     
   6 N6             0.4292    -2.8324    -0.2111 N.2     
   7 C7             0.1896    -4.1277    -0.2332 C.2     
   8 N8            -1.1473    -4.3398    -0.1240 N.pl3   
   9 C9            -1.7494    -3.0844    -0.0240 C.2     
  10 C10           -3.1260    -2.8121     0.1076 C.2     
  11 O11           -4.0145    -3.8284     0.1480 O.3     
  12 O12           -3.5143    -1.6604     0.1850 O.2     
  13 C13           -5.3937    -3.4794     0.2827 C.3     
  14 C14           -6.2417    -4.7526     0.3099 C.3     
  15 S15            1.4123    -5.3876    -0.3819 S.3     
  16 C16            2.9045    -4.3677    -0.4775 C.3     
  17 C17           -1.8268    -5.6376    -0.1080 C.3     
  18 C18           -1.9373    -6.1292     1.3123 C.ar    
  19 C19           -3.0436    -5.8007     2.0733 C.ar    
  20 C20           -3.1450    -6.2516     3.3761 C.ar    
  21 C21           -2.1403    -7.0315     3.9177 C.ar    
  22 C22           -1.0345    -7.3608     3.1564 C.ar    
  23 C23           -0.9351    -6.9134     1.8522 C.ar    
  24 C24            1.2312     2.2945     0.0105 C.ar    
  25 C25            1.0906     3.6658     0.0670 C.ar    
  26 C26           -0.1702     4.2352     0.0738 C.ar    
  27 C27           -1.2980     3.4348     0.0246 C.ar    
  28 C28           -1.1715     2.0627    -0.0380 C.ar    
  29 C29            2.6054     1.6759     0.0036 C.3     
  30 H30           -1.7309    -0.3770     0.0584 H       
  31 H31           -5.5395    -2.9259     1.2103 H       
  32 H32           -5.6958    -2.8596    -0.5615 H       
  33 H33           -7.2936    -4.4864     0.4127 H       
  34 H34           -6.0959    -5.3061    -0.6177 H       
  35 H35           -5.9396    -5.3724     1.1542 H       
  36 H36            2.8396    -3.7091    -1.3436 H       
  37 H37            2.9938    -3.7685     0.4287 H       
  38 H38            3.7788    -5.0113    -0.5751 H       
  39 H39           -2.8243    -5.5307    -0.5342 H       
  40 H40           -1.2549    -6.3545    -0.6972 H       
  41 H41           -3.8285    -5.1914     1.6501 H       
  42 H42           -4.0089    -5.9944     3.9709 H       
  43 H43           -2.2191    -7.3832     4.9358 H       
  44 H44           -0.2494    -7.9697     3.5797 H       
  45 H45           -0.0712    -7.1707     1.2574 H       
  46 H46            1.9667     4.2962     0.1063 H       
  47 H47           -0.2748     5.3093     0.1181 H       
  48 H48           -2.2794     3.8857     0.0309 H       
  49 H49           -2.0524     1.4392    -0.0767 H       
  50 H50            2.9013     1.4593    -1.0228 H       
  51 H51            3.3185     2.3699     0.4485 H       
  52 H52            2.5904     0.7510     0.5803 H       
@<TRIPOS>BOND
   1    1    2 1
   2    1   24 ar
   3    1   28 ar
   4    2    3 am
   5    2    4 2
   6    3    5 1
   7    3   30 1
   8    5    6 1
   9    5    9 2
  10    6    7 2
  11    7    8 1
  12    7   15 1
  13    8    9 1
  14    8   17 1
  15    9   10 1
  16   10   11 1
  17   10   12 2
  18   11   13 1
  19   13   14 1
  20   13   31 1
  21   13   32 1
  22   14   33 1
  23   14   34 1
  24   14   35 1
  25   15   16 1
  26   16   36 1
  27   16   37 1
  28   16   38 1
  29   17   18 1
  30   17   39 1
  31   17   40 1
  32   18   19 ar
  33   18   23 ar
  34   19   20 ar
  35   19   41 1
  36   20   21 ar
  37   20   42 1
  38   21   22 ar
  39   21   43 1
  40   22   23 ar
  41   22   44 1
  42   23   45 1
  43   24   25 ar
  44   24   29 1
  45   25   26 ar
  46   25   46 1
  47   26   27 ar
  48   26   47 1
  49   27   28 ar
  50   27   48 1
  51   28   49 1
  52   29   50 1
  53   29   51 1
  54   29   52 1

#	End of record

