#	Name: ASD05430340
#	Creating user name:	WinNT
#	Creation time:	15. 06. 2019 21:00

#	Modifying user name:	WinNT
#	Modification time:	15. 06. 2019 21:00

#	Program:	/corina/corina34_cracker 3.40 0067  02.08.2006

@<TRIPOS>MOLECULE
ASD05430340
  61   65    0    0    0
SMALL
NO_CHARGES


@<TRIPOS>ATOM
   1 C1            -0.1486     1.0742     0.1816 C.ar    
   2 C2            -0.1509    -0.0967     0.9392 C.ar    
   3 C3            -1.3352    -0.5683     1.4915 C.ar    
   4 C4            -2.5128     0.1186     1.2939 C.ar    
   5 C5            -2.5181     1.2941     0.5355 C.ar    
   6 C6            -1.3250     1.7716    -0.0161 C.ar    
   7 C7            -4.9888    -0.1576     0.1186 C.3     
   8 C8            -4.9364     1.3577     0.2062 C.2     
   9 C9            -3.7751     2.0293     0.3232 C.2     
  10 C10           -5.7958    -0.5240    -1.1300 C.3     
  11 C11           -7.0609     0.2754    -1.2066 C.2     
  12 N12           -7.2373     1.4681    -0.6254 N.am    
  13 C13           -6.2434     2.0481     0.1542 C.2     
  14 C14           -9.5935     1.2380    -1.2017 C.ar    
  15 C15          -10.0550     0.3186    -0.2782 C.ar    
  16 C16          -10.1403     1.2787    -2.4708 C.ar    
  17 C17          -11.1494     0.4005    -2.8175 C.ar    
  18 C18          -11.6124    -0.5208    -1.8935 C.ar    
  19 C19          -11.0637    -0.5610    -0.6229 C.ar    
  20 F20          -12.5991    -1.3796    -2.2312 F       
  21 O21            1.0122     1.5326    -0.3578 O.3     
  22 C22            0.9409     2.7379    -1.1222 C.3     
  23 C23            1.5359    -1.2383     2.3453 C.2     
  24 N24            1.0438    -0.7993     1.1434 N.pl3   
  25 C25            2.7004    -1.8626     2.0854 C.2     
  26 N26            2.9182    -1.8092     0.7630 N.2     
  27 C27            1.9331    -1.1749     0.1877 C.2     
  28 C28            3.6031    -2.5091     3.1043 C.3     
  29 C29           -8.4978     2.2008    -0.8227 C.3     
  30 C30           -8.8505     2.8947     0.5003 C.3     
  31 C31           -7.7071     3.8452     0.8666 C.3     
  32 N32           -6.4326     3.1346     0.8300 N.2     
  33 C33           -8.3218     3.2468    -1.9254 C.3     
  34 O34           -7.9866    -0.1893    -1.8371 O.2     
  35 H35           -1.3326    -1.4759     2.0769 H       
  36 H36           -3.4321    -0.2506     1.7241 H       
  37 H37           -1.3246     2.6787    -0.6023 H       
  38 H38           -3.9783    -0.5580     0.0361 H       
  39 H39           -5.4762    -0.5624     1.0055 H       
  40 H40           -3.7662     3.1075     0.2612 H       
  41 H41           -5.1932    -0.3259    -2.0165 H       
  42 H42           -6.0442    -1.5848    -1.0970 H       
  43 H43           -9.6269     0.2875     0.7128 H       
  44 H44           -9.7789     1.9975    -3.1914 H       
  45 H45          -11.5768     0.4329    -3.8088 H       
  46 H46          -11.4239    -1.2794     0.0986 H       
  47 H47            1.9336     2.9915    -1.4940 H       
  48 H48            0.2633     2.5948    -1.9639 H       
  49 H49            0.5715     3.5466    -0.4917 H       
  50 H50            1.0795    -1.1050     3.3150 H       
  51 H51            1.8406    -0.9812    -0.8708 H       
  52 H52            3.3181    -3.5534     3.2317 H       
  53 H53            4.6363    -2.4537     2.7614 H       
  54 H54            3.5080    -1.9877     4.0568 H       
  55 H55           -9.7749     3.4602     0.3833 H       
  56 H56           -8.9731     2.1483     1.2851 H       
  57 H57           -7.6811     4.6704     0.1550 H       
  58 H58           -7.8725     4.2400     1.8691 H       
  59 H59           -8.0436     2.7510    -2.8554 H       
  60 H60           -9.2582     3.7863    -2.0672 H       
  61 H61           -7.5381     3.9482    -1.6390 H       
@<TRIPOS>BOND
   1    1    2 ar
   2    1   21 1
   3    1    6 ar
   4    2    3 ar
   5    2   24 1
   6    3    4 ar
   7    3   35 1
   8    4    5 ar
   9    4   36 1
  10    5    6 ar
  11    5    9 1
  12    6   37 1
  13    7    8 1
  14    7   10 1
  15    7   38 1
  16    7   39 1
  17    8    9 2
  18    8   13 1
  19    9   40 1
  20   10   11 1
  21   10   41 1
  22   10   42 1
  23   11   12 am
  24   11   34 2
  25   12   13 1
  26   12   29 1
  27   13   32 2
  28   14   15 ar
  29   14   16 ar
  30   14   29 1
  31   15   19 ar
  32   15   43 1
  33   16   17 ar
  34   16   44 1
  35   17   18 ar
  36   17   45 1
  37   18   19 ar
  38   18   20 1
  39   19   46 1
  40   21   22 1
  41   22   47 1
  42   22   48 1
  43   22   49 1
  44   23   24 1
  45   23   25 2
  46   23   50 1
  47   24   27 1
  48   25   26 1
  49   25   28 1
  50   26   27 2
  51   27   51 1
  52   28   52 1
  53   28   53 1
  54   28   54 1
  55   29   30 1
  56   29   33 1
  57   30   31 1
  58   30   55 1
  59   30   56 1
  60   31   32 1
  61   31   57 1
  62   31   58 1
  63   33   59 1
  64   33   60 1
  65   33   61 1

#	End of record

