#	Name: ASD01816830
#	Creating user name:	WinNT
#	Creation time:	15. 06. 2019 19:36

#	Modifying user name:	WinNT
#	Modification time:	15. 06. 2019 19:36

#	Program:	/corina/corina34_cracker 3.40 0067  02.08.2006

@<TRIPOS>MOLECULE
ASD01816830
  50   53    0    0    0
SMALL
NO_CHARGES


@<TRIPOS>ATOM
   1 C1            -0.0166     1.3881     0.0183 C.ar    
   2 C2             0.0025    -0.0052    -0.0004 C.ar    
   3 C3             1.1805    -0.6883    -0.0234 C.ar    
   4 C4             2.3930     0.0184    -0.0288 C.ar    
   5 C5             2.3768     1.4368    -0.0102 C.ar    
   6 C6             1.1392     2.1061     0.0137 C.ar    
   7 C7             3.6308    -0.6538    -0.0518 C.ar    
   8 C8             4.7719     0.0925    -0.0554 C.ar    
   9 C9             4.6899     1.4945    -0.0363 C.ar    
  10 N10            3.5254     2.1169    -0.0156 N.ar    
  11 C11            5.9364     2.2920    -0.0400 C.2     
  12 N12            7.1314     1.6751     0.0484 N.am    
  13 O13            5.8825     3.5034    -0.1227 O.2     
  14 C14            8.3676     2.4526    -0.0683 C.3     
  15 C15            8.7352     3.0388     1.2983 C.3     
  16 C16            9.5034     1.5411    -0.5429 C.3     
  17 C17           10.8067     2.3431    -0.5862 C.3     
  18 O18           11.0738     2.8858     0.7086 O.3     
  19 C19           10.0681     3.7830     1.1839 C.3     
  20 O20            9.2040     1.0456    -1.8493 O.3     
  21 C21            3.6922    -2.1594    -0.0715 C.3     
  22 C22            3.5723    -2.6486    -1.4918 C.ar    
  23 C23            4.7078    -2.8227    -2.2608 C.ar    
  24 C24            2.3272    -2.9283    -2.0234 C.ar    
  25 C25            2.2166    -3.3774    -3.3259 C.ar    
  26 C26            3.3522    -3.5465    -4.0978 C.ar    
  27 C27            4.5984    -3.2709    -3.5637 C.ar    
  28 Cl28           3.2141    -4.1105    -5.7338 Cl      
  29 O29            3.4946     3.5324     0.0031 O.3     
  30 H30           -0.9640     1.9063     0.0322 H       
  31 H31           -0.9296    -0.5507     0.0037 H       
  32 H32            1.1816    -1.7682    -0.0370 H       
  33 H33            1.1069     3.1855     0.0278 H       
  34 H34            5.7363    -0.3931    -0.0725 H       
  35 H35            7.1730     0.7163     0.1892 H       
  36 H36            8.2235     3.2612    -0.7850 H       
  37 H37            7.9573     3.7319     1.6185 H       
  38 H38            8.8290     2.2334     2.0268 H       
  39 H39            9.6128     0.7054     0.1484 H       
  40 H40           11.6266     1.6887    -0.8822 H       
  41 H41           10.7104     3.1545    -1.3076 H       
  42 H42            9.9621     4.6132     0.4856 H       
  43 H43           10.3559     4.1658     2.1630 H       
  44 H44            9.8822     0.4601    -2.2129 H       
  45 H45            4.6427    -2.4898     0.3475 H       
  46 H46            2.8729    -2.5643     0.5226 H       
  47 H47            5.6805    -2.6083    -1.8435 H       
  48 H48            1.4408    -2.7962    -1.4208 H       
  49 H49            1.2439    -3.5965    -3.7409 H       
  50 H50            5.4852    -3.4023    -4.1659 H       
@<TRIPOS>BOND
   1    1    2 ar
   2    1    6 ar
   3    1   30 1
   4    2    3 ar
   5    2   31 1
   6    3    4 ar
   7    3   32 1
   8    4    5 ar
   9    4    7 ar
  10    5    6 ar
  11    5   10 ar
  12    6   33 1
  13    7    8 ar
  14    7   21 1
  15    8    9 ar
  16    8   34 1
  17    9   10 ar
  18    9   11 1
  19   10   29 1
  20   11   12 am
  21   11   13 2
  22   12   14 1
  23   12   35 1
  24   14   15 1
  25   14   16 1
  26   14   36 1
  27   15   19 1
  28   15   37 1
  29   15   38 1
  30   16   17 1
  31   16   20 1
  32   16   39 1
  33   17   18 1
  34   17   40 1
  35   17   41 1
  36   18   19 1
  37   19   42 1
  38   19   43 1
  39   20   44 1
  40   21   22 1
  41   21   45 1
  42   21   46 1
  43   22   23 ar
  44   22   24 ar
  45   23   27 ar
  46   23   47 1
  47   24   25 ar
  48   24   48 1
  49   25   26 ar
  50   25   49 1
  51   26   27 ar
  52   26   28 1
  53   27   50 1

#	End of record

