#	Name: ASD01840039
#	Creating user name:	WinNT
#	Creation time:	15. 06. 2019 19:37

#	Modifying user name:	WinNT
#	Modification time:	15. 06. 2019 19:37

#	Program:	/corina/corina34_cracker 3.40 0067  02.08.2006

@<TRIPOS>MOLECULE
ASD01840039
  26   27    0    0    0
SMALL
NO_CHARGES


@<TRIPOS>ATOM
   1 C1             0.0021    -0.0041     0.0020 C.1     
   2 C2            -0.0179     1.4678     0.0101 C.3     
   3 C3             1.4175     1.9974    -0.0007 C.3     
   4 N4             0.0175    -1.1399    -0.0042 N.1     
   5 S5             1.3929     3.8112     0.0092 S.3     
   6 N6             5.2931     4.0806    -0.0266 N.pl3   
   7 N7             4.9537     5.4393    -0.0160 N.2     
   8 C8             3.6408     5.5371    -0.0030 C.2     
   9 C9             3.1041     4.2309    -0.0049 C.2     
  10 C10            4.1411     3.3574    -0.0195 C.2     
  11 C11            1.6459     6.8888    -0.6640 C.ar    
  12 C12            2.8614     6.7991     0.0120 C.ar    
  13 C13            3.3336     7.9172     0.7046 C.ar    
  14 C14            2.5686     9.0710     0.6882 C.ar    
  15 C15            1.3730     9.0802    -0.0063 C.ar    
  16 N16            0.9530     8.0089    -0.6514 N.ar    
  17 H17           -0.5451     1.8289    -0.8729 H       
  18 H18           -0.5281     1.8193     0.9069 H       
  19 H19            1.9447     1.6363     0.8823 H       
  20 H20            1.9277     1.6458    -0.8975 H       
  21 H21            6.1928     3.7184    -0.0407 H       
  22 H22            4.0658     2.2800    -0.0251 H       
  23 H23            1.2712     6.0338    -1.2071 H       
  24 H24            4.2713     7.8821     1.2392 H       
  25 H25            2.9019     9.9544     1.2126 H       
  26 H26            0.7737     9.9785    -0.0211 H       
@<TRIPOS>BOND
   1    1    2 1
   2    1    4 3
   3    2    3 1
   4    2   17 1
   5    2   18 1
   6    3    5 1
   7    3   19 1
   8    3   20 1
   9    5    9 1
  10    6    7 1
  11    6   10 1
  12    6   21 1
  13    7    8 2
  14    8    9 1
  15    8   12 1
  16    9   10 2
  17   10   22 1
  18   11   12 ar
  19   11   16 ar
  20   11   23 1
  21   12   13 ar
  22   13   14 ar
  23   13   24 1
  24   14   15 ar
  25   14   25 1
  26   15   16 ar
  27   15   26 1

#	End of record

