#	Name: ASD01916215
#	Creating user name:	WinNT
#	Creation time:	15. 06. 2019 20:06

#	Modifying user name:	WinNT
#	Modification time:	15. 06. 2019 20:06

#	Program:	/corina/corina34_cracker 3.40 0067  02.08.2006

@<TRIPOS>MOLECULE
ASD01916215
  41   44    0    0    0
SMALL
NO_CHARGES


@<TRIPOS>ATOM
   1 C1            -0.4223     2.2008     0.4272 C.ar    
   2 C2            -0.5441     0.8460     0.6752 C.ar    
   3 C3             0.5858     0.0680     0.8473 C.ar    
   4 C4             1.8397     0.6427     0.7714 C.ar    
   5 C5             1.9647     2.0017     0.5223 C.ar    
   6 C6             0.8293     2.7803     0.3504 C.ar    
   7 O7             3.1971     2.5696     0.4476 O.3     
   8 C8             3.2497     3.9739     0.1882 C.3     
   9 C9             4.6877     4.4224     0.1408 C.2     
  10 N10            5.4660     4.4580    -0.9574 N.2     
  11 C11            6.6407     4.8903    -0.6354 C.2     
  12 N12            6.6523     5.1613     0.7105 N.am    
  13 C13            5.4126     4.8622     1.1908 C.2     
  14 C14            7.8640     5.0941    -1.4969 C.3     
  15 C15            8.7078     6.2055    -0.8629 C.3     
  16 N16            8.7899     6.0471     0.5859 N.am    
  17 C17            7.7422     5.6458     1.3337 C.2     
  18 O18            7.7813     5.7202     2.5458 O.2     
  19 C19           10.0054     6.3224     1.2245 C.ar    
  20 C20           10.7283     5.2951     1.8159 C.ar    
  21 C21           11.9271     5.5686     2.4448 C.ar    
  22 C22           12.4080     6.8665     2.4861 C.ar    
  23 C23           11.6886     7.8925     1.8969 C.ar    
  24 C24           10.4922     7.6223     1.2620 C.ar    
  25 F25           13.5805     7.1322     3.1026 F       
  26 Br26           4.8258     5.0219     2.9813 Br      
  27 H27           -1.3063     2.8056     0.2889 H       
  28 H28           -1.5236     0.3948     0.7349 H       
  29 H29            0.4880    -0.9899     1.0416 H       
  30 H30            2.7220     0.0346     0.9063 H       
  31 H31            0.9240     3.8384     0.1559 H       
  32 H32            2.7716     4.1848    -0.7684 H       
  33 H33            2.7280     4.5096     0.9812 H       
  34 H34            8.4423     4.1712    -1.5401 H       
  35 H35            7.5621     5.3883    -2.5021 H       
  36 H36            9.7132     6.1741    -1.2830 H       
  37 H37            8.2565     7.1710    -1.0915 H       
  38 H38           10.3532     4.2828     1.7846 H       
  39 H39           12.4897     4.7698     2.9050 H       
  40 H40           12.0654     8.9041     1.9302 H       
  41 H41            9.9315     8.4227     0.8022 H       
@<TRIPOS>BOND
   1    1    2 ar
   2    1    6 ar
   3    1   27 1
   4    2    3 ar
   5    2   28 1
   6    3    4 ar
   7    3   29 1
   8    4    5 ar
   9    4   30 1
  10    5    6 ar
  11    5    7 1
  12    6   31 1
  13    7    8 1
  14    8    9 1
  15    8   32 1
  16    8   33 1
  17    9   10 1
  18    9   13 2
  19   10   11 2
  20   11   12 1
  21   11   14 1
  22   12   13 1
  23   12   17 am
  24   13   26 1
  25   14   15 1
  26   14   34 1
  27   14   35 1
  28   15   16 1
  29   15   36 1
  30   15   37 1
  31   16   17 am
  32   16   19 1
  33   17   18 2
  34   19   20 ar
  35   19   24 ar
  36   20   21 ar
  37   20   38 1
  38   21   22 ar
  39   21   39 1
  40   22   23 ar
  41   22   25 1
  42   23   24 ar
  43   23   40 1
  44   24   41 1

#	End of record

