#	Name: ASD01670068
#	Creating user name:	WinNT
#	Creation time:	15. 06. 2019 19:22

#	Modifying user name:	WinNT
#	Modification time:	15. 06. 2019 19:22

#	Program:	/corina/corina34_cracker 3.40 0067  02.08.2006

@<TRIPOS>MOLECULE
ASD01670068
  64   67    0    0    0
SMALL
NO_CHARGES


@<TRIPOS>ATOM
   1 C1            -0.1866     0.0202    -0.4230 C.ar    
   2 C2             0.3761    -0.1520     0.8289 C.ar    
   3 C3             0.5912    -0.1062    -1.5557 C.ar    
   4 C4             1.7213    -0.4514     0.9544 C.ar    
   5 C5             6.7999    -0.8680     3.7258 C.ar    
   6 C6             1.9472     0.6928    -6.8797 C.ar    
   7 C7             1.6268    -1.6814    -6.8328 C.ar    
   8 C8             7.0225    -0.9919     5.0876 C.ar    
   9 C9             1.1510     0.7807    -8.0052 C.ar    
  10 C10            0.8299    -1.5989    -7.9582 C.ar    
  11 C11            1.9484    -0.4085    -1.4362 C.ar    
  12 C12            5.1542    -2.6169     3.8315 C.ar    
  13 C13            2.1848    -0.5369    -6.2939 C.ar    
  14 C14            2.5100    -0.5805    -0.1698 C.ar    
  15 C15            5.8747    -1.6705     3.0957 C.ar    
  16 C16            6.3179    -1.9235     5.8304 C.ar    
  17 C17            5.3790    -2.7424     5.2075 C.ar    
  18 C18            0.5896    -0.3662    -8.5476 C.ar    
  19 C19            5.0435     2.3886     0.3888 C.2     
  20 C20            5.4152     1.3147     1.0405 C.2     
  21 C21            2.7876    -0.5459    -2.6456 C.2     
  22 C22            4.1627    -3.4776     3.1614 C.2     
  23 C23            5.1389    -2.9659     7.4142 C.3     
  24 C24            3.0537    -0.6299    -5.0661 C.3     
  25 C25           -0.7389    -1.5037   -10.1580 C.3     
  26 C26            3.9749    -0.9062    -0.0313 C.3     
  27 C27            5.6386    -1.5286     1.6141 C.3     
  28 C28            4.4108     0.5440     1.8580 C.3     
  29 N29            2.2221    -0.4938    -3.8678 N.am    
  30 N30            4.3581    -0.8459     1.3855 N.3     
  31 O31            4.5022    -4.5481     2.6974 O.2     
  32 O32            3.9877    -0.7059    -2.5375 O.2     
  33 O33            2.8797    -3.0773     3.0634 O.3     
  34 O34            6.3530    -2.2349     7.1594 O.3     
  35 O35            4.8277    -3.5652     6.1423 O.3     
  36 O36           -0.1944    -0.2822    -9.6545 O.3     
  37 H37           -1.2380     0.2497    -0.5142 H       
  38 H38           -0.2370    -0.0520     1.7124 H       
  39 H39            0.1506     0.0281    -2.5325 H       
  40 H40            2.1547    -0.5840     1.9347 H       
  41 H41            7.3516    -0.1351     3.1559 H       
  42 H42            2.3881     1.5847    -6.4597 H       
  43 H43            1.8139    -2.6408    -6.3734 H       
  44 H44            7.7504    -0.3582     5.5724 H       
  45 H45            0.9654     1.7415    -8.4622 H       
  46 H46            0.3946    -2.4932    -8.3790 H       
  47 H47            5.7633     2.9409    -0.1971 H       
  48 H48            4.0173     2.7217     0.4374 H       
  49 H49            6.4414     0.9816     0.9919 H       
  50 H50            5.3058    -3.7345     8.1689 H       
  51 H51            4.3425    -2.2895     7.7246 H       
  52 H52            3.5582    -1.5960    -5.0504 H       
  53 H53            3.7965     0.1676    -5.0855 H       
  54 H54            0.0727    -2.1807   -10.4246 H       
  55 H55           -1.3616    -1.9668    -9.3925 H       
  56 H56           -1.3432    -1.2955   -11.0409 H       
  57 H57            4.1622    -1.9086    -0.4161 H       
  58 H58            4.5628    -0.1839    -0.5977 H       
  59 H59            6.4457    -0.9446     1.1718 H       
  60 H60            5.6108    -2.5165     1.1543 H       
  61 H61            4.7069     0.5603     2.9069 H       
  62 H62            3.4274     1.0017     1.7510 H       
  63 H63            1.2644    -0.3661    -3.9540 H       
  64 H64            2.2662    -3.6756     2.6154 H       
@<TRIPOS>BOND
   1    1    2 ar
   2    1    3 ar
   3    1   37 1
   4    2    4 ar
   5    2   38 1
   6    3   11 ar
   7    3   39 1
   8    4   14 ar
   9    4   40 1
  10    5    8 ar
  11    5   15 ar
  12    5   41 1
  13    6    9 ar
  14    6   13 ar
  15    6   42 1
  16    7   10 ar
  17    7   13 ar
  18    7   43 1
  19    8   16 ar
  20    8   44 1
  21    9   18 ar
  22    9   45 1
  23   10   18 ar
  24   10   46 1
  25   11   14 ar
  26   11   21 1
  27   12   15 ar
  28   12   17 ar
  29   12   22 1
  30   13   24 1
  31   14   26 1
  32   15   27 1
  33   16   17 ar
  34   16   34 1
  35   17   35 1
  36   18   36 1
  37   19   20 2
  38   19   47 1
  39   19   48 1
  40   20   28 1
  41   20   49 1
  42   21   29 am
  43   21   32 2
  44   22   31 2
  45   22   33 1
  46   23   34 1
  47   23   35 1
  48   23   50 1
  49   23   51 1
  50   24   29 1
  51   24   52 1
  52   24   53 1
  53   25   36 1
  54   25   54 1
  55   25   55 1
  56   25   56 1
  57   26   30 1
  58   26   57 1
  59   26   58 1
  60   27   30 1
  61   27   59 1
  62   27   60 1
  63   28   30 1
  64   28   61 1
  65   28   62 1
  66   29   63 1
  67   33   64 1

#	End of record

