#	Name: ASD02508491
#	Creating user name:	WinNT
#	Creation time:	15. 06. 2019 20:24

#	Modifying user name:	WinNT
#	Modification time:	15. 06. 2019 20:24

#	Program:	/corina/corina34_cracker 3.40 0067  02.08.2006

@<TRIPOS>MOLECULE
ASD02508491
  31   33    0    0    0
SMALL
NO_CHARGES


@<TRIPOS>ATOM
   1 C1             1.1039     1.7623     0.2839 C.2     
   2 C2             2.0329     0.7209     0.1906 C.2     
   3 C3             1.3582    -0.4492     0.2837 C.2     
   4 N4             0.0463    -0.1570     0.4309 N.pl3   
   5 N5            -0.0871     1.2375     0.4279 N.2     
   6 C6            -0.9936    -1.0830     0.5624 C.2     
   7 S7             2.0630    -2.0629     0.2230 S.o2    
   8 N8             1.9122    -2.6054    -1.3344 N.am    
   9 C9             2.6366    -1.9925    -2.3614 C.ar    
  10 C10            2.6650    -0.6076    -2.4615 C.ar    
  11 O11            3.4551    -1.9019     0.4588 O.2     
  12 O12            1.2308    -2.8945     1.0199 O.2     
  13 C13            3.3330    -2.7676    -3.2791 C.ar    
  14 C14            4.0482    -2.1605    -4.2934 C.ar    
  15 C15            4.0712    -0.7804    -4.3956 C.ar    
  16 C16            3.3816    -0.0041    -3.4775 C.ar    
  17 Cl17           3.4123     1.7267    -3.6081 Cl      
  18 C18           -2.0080    -0.9886     1.4343 C.2     
  19 C19           -2.9188    -2.0288     1.3789 C.2     
  20 C20           -2.6497    -2.9655     0.4682 C.2     
  21 S21           -1.1761    -2.5468    -0.3955 S.3     
  22 F22            4.7713    -0.1890    -5.3882 F       
  23 H23            1.3304     2.8177     0.2479 H       
  24 H24            3.1000     0.8307     0.0660 H       
  25 H25            1.3214    -3.3483    -1.5341 H       
  26 H26            2.1274    -0.0028    -1.7463 H       
  27 H27            3.3159    -3.8446    -3.1999 H       
  28 H28            4.5902    -2.7634    -5.0070 H       
  29 H29           -2.1062    -0.1651     2.1261 H       
  30 H30           -3.7829    -2.0787     2.0249 H       
  31 H31           -3.2484    -3.8457     0.2861 H       
@<TRIPOS>BOND
   1    1    2 1
   2    1    5 2
   3    1   23 1
   4    2    3 2
   5    2   24 1
   6    3    4 1
   7    3    7 1
   8    4    5 1
   9    4    6 1
  10    6   18 2
  11    6   21 1
  12    7    8 am
  13    7   11 2
  14    7   12 2
  15    8    9 1
  16    8   25 1
  17    9   13 ar
  18    9   10 ar
  19   10   16 ar
  20   10   26 1
  21   13   14 ar
  22   13   27 1
  23   14   15 ar
  24   14   28 1
  25   15   16 ar
  26   15   22 1
  27   16   17 1
  28   18   19 1
  29   18   29 1
  30   19   20 2
  31   19   30 1
  32   20   21 1
  33   20   31 1

#	End of record

