#	Name: ASD01811558
#	Creating user name:	WinNT
#	Creation time:	15. 06. 2019 19:26

#	Modifying user name:	WinNT
#	Modification time:	15. 06. 2019 19:26

#	Program:	/corina/corina34_cracker 3.40 0067  02.08.2006

@<TRIPOS>MOLECULE
ASD01811558
  71   76    0    0    0
SMALL
NO_CHARGES


@<TRIPOS>ATOM
   1 C1            -7.6560     2.4770    -4.1285 C.1     
   2 C2            -6.6459     3.2288    -3.4466 C.ar    
   3 C3            -5.4819     2.5980    -3.0027 C.ar    
   4 C4            -4.5129     3.3283    -2.3464 C.ar    
   5 C5            -4.6925     4.6826    -2.1274 C.ar    
   6 C6            -5.8436     5.3139    -2.5641 C.ar    
   7 C7            -6.8178     4.5971    -3.2277 C.ar    
   8 N8            -8.4574     1.8806    -4.6694 N.1     
   9 N9            -2.5324     7.8388    -0.3128 N.am    
  10 C10           -2.0136     7.3683    -1.6044 C.3     
  11 C11           -3.1178     6.5882    -2.3247 C.3     
  12 C12           -3.6296     5.4737    -1.4093 C.3     
  13 C13           -4.2218     6.0868    -0.1382 C.3     
  14 C14           -3.1301     6.8612     0.6068 C.3     
  15 C15           -2.4564     9.1415     0.0243 C.2     
  16 C16           -3.0590     9.6143     1.2891 C.ar    
  17 C17           -3.9987    10.6477     1.2735 C.ar    
  18 C18           -4.5622    11.0900     2.4536 C.ar    
  19 C19           -4.2015    10.5149     3.6564 C.ar    
  20 C20           -3.2635     9.4813     3.6861 C.ar    
  21 C21           -2.6952     9.0261     2.4985 C.ar    
  22 O22           -1.8925     9.9278    -0.7114 O.2     
  23 C23           -4.8215    11.0047     4.9397 C.3     
  24 C24           -4.3979    11.2813    -0.0342 C.3     
  25 C25           -3.0784     8.3444     8.5636 C.3     
  26 C26           -3.1611     9.6591     9.3316 C.3     
  27 C27           -4.4254     8.8315     9.0858 C.3     
  28 C28           -0.9932     6.6572     7.2173 C.3     
  29 C29           -1.8742     7.6318     6.4796 C.2     
  30 C30           -2.8220     8.3959     7.0790 C.2     
  31 C31           -2.4246     7.1415     9.2579 C.3     
  32 N32           -1.0948     6.9350     8.6591 N.am    
  33 C33           -2.8781     8.8670     4.9755 C.2     
  34 N34           -1.9016     7.9266     5.1529 N.pl3   
  35 N35           -3.4182     9.1326     6.1476 N.2     
  36 C36            0.0146     6.9990     9.4218 C.2     
  37 O37           -0.0781     7.2284    10.6091 O.2     
  38 C38            1.3703     6.7857     8.7992 C.3     
  39 H39           -5.3408     1.5408    -3.1724 H       
  40 H40           -3.6121     2.8417    -2.0026 H       
  41 H41           -5.9776     6.3712    -2.3895 H       
  42 H42           -7.7137     5.0920    -3.5723 H       
  43 H43           -1.7146     8.2230    -2.2113 H       
  44 H44           -1.1552     6.7174    -1.4381 H       
  45 H45           -3.9382     7.2623    -2.5709 H       
  46 H46           -2.7174     6.1522    -3.2399 H       
  47 H47           -2.8036     4.8141    -1.1433 H       
  48 H48           -5.0318     6.7656    -0.4050 H       
  49 H49           -4.6072     5.2938     0.5027 H       
  50 H50           -2.3628     6.1690     0.9534 H       
  51 H51           -3.5678     7.3813     1.4589 H       
  52 H52           -5.2880    11.8895     2.4362 H       
  53 H53           -1.9725     8.2238     2.5157 H       
  54 H54           -5.6665    10.3677     5.2012 H       
  55 H55           -4.0799    10.9702     5.7378 H       
  56 H56           -5.1665    12.0302     4.8083 H       
  57 H57           -5.1887    10.6913    -0.4974 H       
  58 H58           -4.7589    12.2936     0.1478 H       
  59 H59           -3.5347    11.3174    -0.6989 H       
  60 H60           -2.7597     9.6766    10.3448 H       
  61 H61           -3.0452    10.5822     8.7635 H       
  62 H62           -5.1412     9.2102     8.3562 H       
  63 H63           -4.8557     8.3046     9.9375 H       
  64 H64           -1.3252     5.6387     7.0163 H       
  65 H65            0.0402     6.7794     6.8927 H       
  66 H66           -2.3209     7.3434    10.3240 H       
  67 H67           -3.0375     6.2525     9.1088 H       
  68 H68           -1.3366     7.5433     4.4640 H       
  69 H69            1.5378     7.5366     8.0271 H       
  70 H70            2.1402     6.8747     9.5657 H       
  71 H71            1.4135     5.7915     8.3546 H       
@<TRIPOS>BOND
   1    1    2 1
   2    1    8 3
   3    2    3 ar
   4    2    7 ar
   5    3    4 ar
   6    3   39 1
   7    4    5 ar
   8    4   40 1
   9    5    6 ar
  10    5   12 1
  11    6    7 ar
  12    6   41 1
  13    7   42 1
  14    9   10 1
  15    9   14 1
  16    9   15 am
  17   10   11 1
  18   10   43 1
  19   10   44 1
  20   11   12 1
  21   11   45 1
  22   11   46 1
  23   12   13 1
  24   12   47 1
  25   13   14 1
  26   13   48 1
  27   13   49 1
  28   14   50 1
  29   14   51 1
  30   15   16 1
  31   15   22 2
  32   16   17 ar
  33   16   21 ar
  34   17   18 ar
  35   17   24 1
  36   18   19 ar
  37   18   52 1
  38   19   20 ar
  39   19   23 1
  40   20   21 ar
  41   20   33 1
  42   21   53 1
  43   23   54 1
  44   23   55 1
  45   23   56 1
  46   24   57 1
  47   24   58 1
  48   24   59 1
  49   25   26 1
  50   25   27 1
  51   25   30 1
  52   25   31 1
  53   26   27 1
  54   26   60 1
  55   26   61 1
  56   27   62 1
  57   27   63 1
  58   28   29 1
  59   28   32 1
  60   28   64 1
  61   28   65 1
  62   29   30 2
  63   29   34 1
  64   30   35 1
  65   31   32 1
  66   31   66 1
  67   31   67 1
  68   32   36 am
  69   33   34 1
  70   33   35 2
  71   34   68 1
  72   36   37 2
  73   36   38 1
  74   38   69 1
  75   38   70 1
  76   38   71 1

#	End of record

