#	Name: ASD00960167
#	Creating user name:	WinNT
#	Creation time:	15. 06. 2019 18:53

#	Modifying user name:	WinNT
#	Modification time:	15. 06. 2019 18:53

#	Program:	/corina/corina34_cracker 3.40 0067  02.08.2006

@<TRIPOS>MOLECULE
ASD00960167
  79   82    0    0    0
SMALL
NO_CHARGES


@<TRIPOS>ATOM
   1 O1            -0.0175     1.4381     0.0099 O.3     
   2 O2             1.0879    -0.3927     0.8592 O.3     
   3 C3             1.3799     1.8029    -0.0014 C.3     
   4 C4             2.0481     0.6773     0.8425 C.3     
   5 C5             3.2591     0.2445    -0.0057 C.3     
   6 O6             3.3036     1.0993    -1.1598 O.3     
   7 C7             1.9513     1.5342    -1.4139 C.3     
   8 C8             1.9469     2.8166    -2.2484 C.3     
   9 C9             4.5264     0.3991     0.7950 C.2     
  10 C10            5.0294    -0.5207     1.6601 C.2     
  11 N11            5.3442     1.4677     0.7634 N.pl3   
  12 C12            6.3966     1.2408     1.6295 C.2     
  13 C13            6.2093    -0.0042     2.1978 C.2     
  14 N14            5.3141     2.6780     0.0565 N.2     
  15 C15            6.2639     3.5563     0.2243 C.2     
  16 N16            7.2843     3.3514     1.0555 N.2     
  17 C17            7.3902     2.2380     1.7616 C.2     
  18 O18            2.4615     2.5383    -3.5522 O.3     
  19 N19            8.4582     2.0513     2.6159 N.pl3   
  20 C20            2.4345     1.1419     2.2481 C.3     
  21 P21            2.6012     3.6609    -4.6978 P.3     
  22 O22            1.2896     4.3118    -4.9132 O.2     
  23 O23            3.6793     4.7650    -4.2386 O.3     
  24 O24            3.0897     2.9713    -6.0681 O.3     
  25 C25            3.2082     3.6859    -7.2999 C.3     
  26 O26            3.6698     2.7842    -8.3402 O.3     
  27 C27            2.7763     1.9106    -8.8301 C.2     
  28 O28            1.6457     1.8996    -8.4038 O.2     
  29 C29            3.1831     0.9433    -9.9117 C.3     
  30 C30            1.9871     0.0664   -10.2879 C.3     
  31 C31            3.6516     1.7222   -11.1425 C.3     
  32 C32            4.3236     0.0594    -9.4030 C.3     
  33 C33            5.0432     4.4491    -3.9524 C.3     
  34 O34            5.7497     5.6580    -3.5680 O.3     
  35 C35            5.5100     6.1388    -2.3379 C.2     
  36 O36            4.7355     5.5684    -1.6066 O.2     
  37 C37            6.2068     7.3901    -1.8690 C.3     
  38 C38            5.7601     7.7187    -0.4430 C.3     
  39 C39            7.7206     7.1695    -1.8911 C.3     
  40 C40            5.8471     8.5523    -2.7967 C.3     
  41 C41            0.0021    -0.0041     0.0020 C.3     
  42 O42           -1.2321    -0.5153     0.5093 O.3     
  43 H43            1.5703     2.8078     0.3753 H       
  44 H44            3.1407    -0.7931    -0.3179 H       
  45 H45            1.3840     0.7490    -1.9136 H       
  46 H46            0.9269     3.1917    -2.3329 H       
  47 H47            2.5711     3.5675    -1.7641 H       
  48 H48            4.5932    -1.4814     1.8907 H       
  49 H49            6.8520    -0.4852     2.9202 H       
  50 H50            6.2215     4.4820    -0.3305 H       
  51 H51            9.1370     2.7390     2.7012 H       
  52 H52            8.5299     1.2324     3.1309 H       
  53 H53            1.5421     1.4721     2.7798 H       
  54 H54            2.8955     0.3160     2.7898 H       
  55 H55            3.1412     1.9686     2.1760 H       
  56 H56            2.2365     4.0943    -7.5780 H       
  57 H57            3.9236     4.4996    -7.1806 H       
  58 H58            1.1746     0.6961   -10.6504 H       
  59 H59            2.2813    -0.6332   -11.0703 H       
  60 H60            1.6533    -0.4884    -9.4111 H       
  61 H61            4.5036     2.3469   -10.8745 H       
  62 H62            3.9458     1.0226   -11.9249 H       
  63 H63            2.8390     2.3519   -11.5050 H       
  64 H64            3.9898    -0.4954    -8.5261 H       
  65 H65            4.6178    -0.6402   -10.1853 H       
  66 H66            5.1756     0.6842    -9.1350 H       
  67 H67            5.0856     3.7283    -3.1358 H       
  68 H68            5.5109     4.0214    -4.8392 H       
  69 H69            6.0163     6.8907     0.2179 H       
  70 H70            6.2641     8.6237    -0.1038 H       
  71 H71            4.6816     7.8758    -0.4272 H       
  72 H72            8.0389     6.9354    -2.9070 H       
  73 H73            8.2246     8.0746    -1.5519 H       
  74 H74            7.9769     6.3415    -1.2302 H       
  75 H75            4.7686     8.7094    -2.7809 H       
  76 H76            6.3511     9.4573    -2.4575 H       
  77 H77            6.1653     8.3182    -3.8126 H       
  78 H78            0.1731    -0.3713    -1.0099 H       
  79 H79           -2.0065    -0.2619    -0.0114 H       
@<TRIPOS>BOND
   1    1   41 1
   2    1    3 1
   3    2   41 1
   4    2    4 1
   5    3    4 1
   6    3    7 1
   7    3   43 1
   8    4   20 1
   9    4    5 1
  10    5    6 1
  11    5    9 1
  12    5   44 1
  13    6    7 1
  14    7    8 1
  15    7   45 1
  16    8   18 1
  17    8   46 1
  18    8   47 1
  19    9   10 2
  20    9   11 1
  21   10   13 1
  22   10   48 1
  23   11   12 1
  24   11   14 1
  25   12   13 2
  26   12   17 1
  27   13   49 1
  28   14   15 2
  29   15   16 1
  30   15   50 1
  31   16   17 2
  32   17   19 1
  33   18   21 1
  34   19   51 1
  35   19   52 1
  36   20   53 1
  37   20   54 1
  38   20   55 1
  39   21   22 2
  40   21   23 1
  41   21   24 1
  42   23   33 1
  43   24   25 1
  44   25   26 1
  45   25   56 1
  46   25   57 1
  47   26   27 1
  48   27   28 2
  49   27   29 1
  50   29   30 1
  51   29   31 1
  52   29   32 1
  53   30   58 1
  54   30   59 1
  55   30   60 1
  56   31   61 1
  57   31   62 1
  58   31   63 1
  59   32   64 1
  60   32   65 1
  61   32   66 1
  62   33   34 1
  63   33   67 1
  64   33   68 1
  65   34   35 1
  66   35   36 2
  67   35   37 1
  68   37   38 1
  69   37   39 1
  70   37   40 1
  71   38   69 1
  72   38   70 1
  73   38   71 1
  74   39   72 1
  75   39   73 1
  76   39   74 1
  77   40   75 1
  78   40   76 1
  79   40   77 1
  80   41   42 1
  81   41   78 1
  82   42   79 1

#	End of record

