#	Name: ASD03330758
#	Creating user name:	WinNT
#	Creation time:	15. 06. 2019 20:37

#	Modifying user name:	WinNT
#	Modification time:	15. 06. 2019 20:37

#	Program:	/corina/corina34_cracker 3.40 0067  02.08.2006

@<TRIPOS>MOLECULE
ASD03330758
  63   65    0    0    0
SMALL
NO_CHARGES


@<TRIPOS>ATOM
   1 C1            -0.6039     3.0099    -0.9708 C.2     
   2 N2            -0.9396     1.6967    -0.8652 N.pl3   
   3 C3             0.6362     3.1511    -0.4258 C.2     
   4 N4             1.0467     1.9316    -0.0137 N.2     
   5 C5             0.1097     1.0517    -0.2786 C.2     
   6 C6             0.1796    -0.3973     0.0106 C.ar    
   7 C7             1.3949     4.4088    -0.3074 C.2     
   8 O8             0.9164     5.4486    -0.7184 O.2     
   9 C9             3.4132     5.6375     0.2874 C.3     
  10 N10            2.6190     4.4068     0.2565 N.am    
  11 C11            4.1925     5.7746    -1.0220 C.3     
  12 C12            4.3787     5.5833     1.4433 C.2     
  13 O13            4.3770     4.6281     2.1906 O.2     
  14 C14           -2.2098     1.1070    -1.2969 C.3     
  15 C15           -2.5433     1.6081    -2.7056 C.3     
  16 C16           -3.3138     2.9215    -2.6169 C.3     
  17 N17           -2.8693     3.7168    -1.4707 N.3     
  18 C18           -1.4518     4.0876    -1.5950 C.3     
  19 C19            1.4105    -1.0544     0.0012 C.ar    
  20 C20           -0.9845    -1.1105     0.2992 C.ar    
  21 C21           -0.9139    -2.4614     0.5681 C.ar    
  22 C22            0.3105    -3.1104     0.5524 C.ar    
  23 C23            1.4702    -2.4055     0.2715 C.ar    
  24 C24           -3.7118     4.9076    -1.2978 C.3     
  25 N25            5.2439     6.5965     1.6466 N.am    
  26 C26            6.1825     6.5438     2.7702 C.3     
  27 C27            4.9910     4.4946    -1.2768 C.3     
  28 C28            5.8688     4.1906    -0.0610 C.3     
  29 C29            4.0267     3.3305    -1.5134 C.3     
  30 C30            5.8760     4.6826    -2.5106 C.3     
  31 F31            0.3745    -4.4336     0.8174 F       
  32 H32            2.7506     6.4946     0.4073 H       
  33 H33            2.9742     3.5906     0.6418 H       
  34 H34            3.4957     5.9378    -1.8442 H       
  35 H35            4.8757     6.6210    -0.9513 H       
  36 H36           -2.1221     0.0206    -1.3079 H       
  37 H37           -3.0014     1.4026    -0.6083 H       
  38 H38           -1.6195     1.7666    -3.2620 H       
  39 H39           -3.1522     0.8646    -3.2201 H       
  40 H40           -3.1541     3.4922    -3.5317 H       
  41 H41           -4.3771     2.7059    -2.5119 H       
  42 H42           -1.2760     5.0329    -1.0815 H       
  43 H43           -1.1930     4.1904    -2.6488 H       
  44 H44            2.3148    -0.5060    -0.2176 H       
  45 H45           -1.9391    -0.6055     0.3124 H       
  46 H46           -1.8143    -3.0143     0.7917 H       
  47 H47            2.4220    -2.9159     0.2604 H       
  48 H48           -4.7445     4.6011    -1.1311 H       
  49 H49           -3.3598     5.4803    -0.4397 H       
  50 H50           -3.6564     5.5252    -2.1942 H       
  51 H51            5.2453     7.3605     1.0489 H       
  52 H52            6.7970     7.4441     2.7728 H       
  53 H53            5.6263     6.4809     3.7055 H       
  54 H54            6.8225     5.6674     2.6683 H       
  55 H55            5.2510     3.7878     0.7416 H       
  56 H56            6.6294     3.4598    -0.3357 H       
  57 H57            6.3513     5.1076     0.2772 H       
  58 H58            3.1917     3.6694    -2.1267 H       
  59 H59            4.5501     2.5236    -2.0261 H       
  60 H60            3.6512     2.9694    -0.5560 H       
  61 H61            6.5630     5.5119    -2.3420 H       
  62 H62            6.4449     3.7707    -2.6921 H       
  63 H63            5.2507     4.8991    -3.3767 H       
@<TRIPOS>BOND
   1    1    2 1
   2    1    3 2
   3    1   18 1
   4    2   14 1
   5    2    5 1
   6    3    4 1
   7    3    7 1
   8    4    5 2
   9    5    6 1
  10    6   20 ar
  11    6   19 ar
  12    7    8 2
  13    7   10 am
  14    9   10 1
  15    9   11 1
  16    9   12 1
  17    9   32 1
  18   10   33 1
  19   11   27 1
  20   11   34 1
  21   11   35 1
  22   12   13 2
  23   12   25 am
  24   14   15 1
  25   14   36 1
  26   14   37 1
  27   15   16 1
  28   15   38 1
  29   15   39 1
  30   16   17 1
  31   16   40 1
  32   16   41 1
  33   17   18 1
  34   17   24 1
  35   18   42 1
  36   18   43 1
  37   19   23 ar
  38   19   44 1
  39   20   21 ar
  40   20   45 1
  41   21   22 ar
  42   21   46 1
  43   22   23 ar
  44   22   31 1
  45   23   47 1
  46   24   48 1
  47   24   49 1
  48   24   50 1
  49   25   26 1
  50   25   51 1
  51   26   52 1
  52   26   53 1
  53   26   54 1
  54   27   29 1
  55   27   30 1
  56   27   28 1
  57   28   55 1
  58   28   56 1
  59   28   57 1
  60   29   58 1
  61   29   59 1
  62   29   60 1
  63   30   61 1
  64   30   62 1
  65   30   63 1

#	End of record

