#	Name: ASD01910201
#	Creating user name:	WinNT
#	Creation time:	15. 06. 2019 19:55

#	Modifying user name:	WinNT
#	Modification time:	15. 06. 2019 19:55

#	Program:	/corina/corina34_cracker 3.40 0067  02.08.2006

@<TRIPOS>MOLECULE
ASD01910201
  39   42    0    0    0
SMALL
NO_CHARGES


@<TRIPOS>ATOM
   1 C1            -0.0169     1.3797     0.0254 C.ar    
   2 C2             0.0015    -0.0020     0.0115 C.ar    
   3 C3             1.2059    -0.6888    -0.0092 C.ar    
   4 C4             2.3983     0.0161    -0.0164 C.ar    
   5 C5             2.3796     1.4260    -0.0027 C.ar    
   6 C6             1.1688     2.0986     0.0184 C.ar    
   7 C7             3.8252    -0.3690    -0.0374 C.2     
   8 N8             4.5713     0.7503    -0.0357 N.am    
   9 C9             3.7957     1.8492    -0.0158 C.2     
  10 O10            4.1925     2.9970    -0.0100 O.2     
  11 O11            4.2524    -1.5057    -0.0534 O.2     
  12 C12            5.9729     0.7691    -0.0517 C.ar    
  13 C13            6.6833    -0.4245    -0.0709 C.ar    
  14 C14            8.0658    -0.4117    -0.0868 C.ar    
  15 C15            8.7493     0.7869    -0.0836 C.ar    
  16 C16            8.0444     1.9921    -0.0644 C.ar    
  17 C17            6.6497     1.9786    -0.0541 C.ar    
  18 C18            8.7737     3.2778    -0.0609 C.2     
  19 N19           10.1213     3.2882    -0.0764 N.am    
  20 C20           10.8075     4.4961    -0.1822 C.ar    
  21 C21           12.1945     4.5107    -0.0895 C.ar    
  22 C22           12.8636     5.7173    -0.1967 C.ar    
  23 C23           12.1192     6.8721    -0.3937 C.ar    
  24 C24           10.7433     6.7838    -0.4763 C.ar    
  25 N25           10.1331     5.6188    -0.3755 N.ar    
  26 O26            8.1580     4.3257    -0.0441 O.2     
  27 H27           -0.9614     1.9033     0.0374 H       
  28 H28           -0.9287    -0.5507     0.0172 H       
  29 H29            1.2142    -1.7687    -0.0193 H       
  30 H30            1.1483     3.1784     0.0286 H       
  31 H31            6.1539    -1.3658    -0.0731 H       
  32 H32            8.6126    -1.3430    -0.1013 H       
  33 H33            9.8292     0.7929    -0.0957 H       
  34 H34            6.0990     2.9076    -0.0395 H       
  35 H35           10.6135     2.4547    -0.0139 H       
  36 H36           12.7425     3.5928     0.0645 H       
  37 H37           13.9406     5.7595    -0.1283 H       
  38 H38           12.6107     7.8298    -0.4812 H       
  39 H39           10.1599     7.6797    -0.6292 H       
@<TRIPOS>BOND
   1    1    2 ar
   2    1    6 ar
   3    1   27 1
   4    2    3 ar
   5    2   28 1
   6    3    4 ar
   7    3   29 1
   8    4    5 ar
   9    4    7 1
  10    5    6 ar
  11    5    9 1
  12    6   30 1
  13    7    8 am
  14    7   11 2
  15    8    9 am
  16    8   12 1
  17    9   10 2
  18   12   13 ar
  19   12   17 ar
  20   13   14 ar
  21   13   31 1
  22   14   15 ar
  23   14   32 1
  24   15   16 ar
  25   15   33 1
  26   16   17 ar
  27   16   18 1
  28   17   34 1
  29   18   19 am
  30   18   26 2
  31   19   20 1
  32   19   35 1
  33   20   21 ar
  34   20   25 ar
  35   21   22 ar
  36   21   36 1
  37   22   23 ar
  38   22   37 1
  39   23   24 ar
  40   23   38 1
  41   24   25 ar
  42   24   39 1

#	End of record

