#	Name: ASD01913012
#	Creating user name:	WinNT
#	Creation time:	15. 06. 2019 20:00

#	Modifying user name:	WinNT
#	Modification time:	15. 06. 2019 20:00

#	Program:	/corina/corina34_cracker 3.40 0067  02.08.2006

@<TRIPOS>MOLECULE
ASD01913012
  40   42    0    0    0
SMALL
NO_CHARGES


@<TRIPOS>ATOM
   1 C1            -0.0173     1.4278     0.0099 C.ar    
   2 C2             0.0021    -0.0041     0.0020 C.1     
   3 C3             0.0180    -1.1779    -0.0044 C.1     
   4 C4             0.0374    -2.6098    -0.0123 C.ar    
   5 C5            -1.1612    -3.3283    -0.0047 C.ar    
   6 C6             1.2550    -3.2954    -0.0334 C.ar    
   7 C7             1.2658    -4.6745    -0.0408 C.ar    
   8 C8             0.0750    -5.3793    -0.0279 C.ar    
   9 C9            -1.1346    -4.7072    -0.0123 C.ar    
  10 N10            1.1289     2.1021     0.0026 N.ar    
  11 C11            1.1561     3.4177     0.0094 C.ar    
  12 C12           -0.0229     4.1546     0.0246 C.ar    
  13 C13           -1.2459     3.4850     0.0327 C.ar    
  14 C14           -1.2408     2.1034     0.0194 C.ar    
  15 N15            0.0175     5.5523     0.0322 N.am    
  16 C16           -1.0698     6.3424     0.0473 C.2     
  17 C17           -0.6558     7.7974     0.0414 C.3     
  18 C18            0.8262     7.7682    -0.3988 C.3     
  19 C19            1.2526     6.3450     0.0309 C.3     
  20 O20           -2.2162     5.9464     0.0630 O.2     
  21 C21            0.9512     7.9496    -1.9129 C.3     
  22 C22            1.6398     8.8281     0.3465 C.3     
  23 H23           -2.1059    -2.8052     0.0074 H       
  24 H24            2.1852    -2.7467    -0.0442 H       
  25 H25            2.2060    -5.2057    -0.0571 H       
  26 H26            0.0896    -6.4591    -0.0342 H       
  27 H27           -2.0600    -5.2639    -0.0024 H       
  28 H28            2.1060     3.9315     0.0034 H       
  29 H29           -2.1760     4.0338     0.0445 H       
  30 H30           -2.1699     1.5527     0.0248 H       
  31 H31           -1.2550     8.3617    -0.6732 H       
  32 H32           -0.7488     8.2245     1.0400 H       
  33 H33            1.6941     6.3683     1.0273 H       
  34 H34            1.9608     5.9306    -0.6866 H       
  35 H35            0.5430     8.9193    -2.1976 H       
  36 H36            2.0017     7.8993    -2.1993 H       
  37 H37            0.3981     7.1593    -2.4204 H       
  38 H38            1.5684     8.6525     1.4199 H       
  39 H39            2.6833     8.7690     0.0373 H       
  40 H40            1.2472     9.8179     0.1134 H       
@<TRIPOS>BOND
   1    1    2 1
   2    1   10 ar
   3    1   14 ar
   4    2    3 3
   5    3    4 1
   6    4    5 ar
   7    4    6 ar
   8    5    9 ar
   9    5   23 1
  10    6    7 ar
  11    6   24 1
  12    7    8 ar
  13    7   25 1
  14    8    9 ar
  15    8   26 1
  16    9   27 1
  17   10   11 ar
  18   11   12 ar
  19   11   28 1
  20   12   13 ar
  21   12   15 1
  22   13   14 ar
  23   13   29 1
  24   14   30 1
  25   15   16 am
  26   15   19 1
  27   16   17 1
  28   16   20 2
  29   17   18 1
  30   17   31 1
  31   17   32 1
  32   18   19 1
  33   18   21 1
  34   18   22 1
  35   19   33 1
  36   19   34 1
  37   21   35 1
  38   21   36 1
  39   21   37 1
  40   22   38 1
  41   22   39 1
  42   22   40 1

#	End of record

