#	Name: ASD02408173
#	Creating user name:	WinNT
#	Creation time:	15. 06. 2019 20:21

#	Modifying user name:	WinNT
#	Modification time:	15. 06. 2019 20:21

#	Program:	/corina/corina34_cracker 3.40 0067  02.08.2006

@<TRIPOS>MOLECULE
ASD02408173
  54   57    0    0    0
SMALL
NO_CHARGES


@<TRIPOS>ATOM
   1 C1            -0.4007     3.0071    -0.8532 C.ar    
   2 C2            -0.6016     1.6580    -0.6284 C.ar    
   3 C3             0.4765     0.8322    -0.3703 C.ar    
   4 C4             1.7556     1.3554    -0.3374 C.ar    
   5 C5             1.9566     2.7043    -0.5632 C.ar    
   6 C6             0.8784     3.5303    -0.8199 C.ar    
   7 C7             2.9308     0.4553    -0.0551 C.3     
   8 O8             3.4347    -0.0701    -1.2848 O.3     
   9 C9             4.5029    -0.9066    -1.2067 C.ar    
  10 C10            5.0546    -1.2154     0.0279 C.ar    
  11 C11            5.0398    -1.4578    -2.3613 C.ar    
  12 C12            6.1251    -2.3081    -2.2792 C.ar    
  13 C13            6.6767    -2.6102    -1.0476 C.ar    
  14 C14            6.1403    -2.0665     0.1047 C.ar    
  15 C15            4.4389    -1.1294    -3.7037 C.3     
  16 C16            5.0297     0.1584    -4.2171 C.2     
  17 N17            4.6228     0.6312    -5.4111 N.am    
  18 N18            5.9148     0.7815    -3.4875 N.2     
  19 C19            6.4730     1.9294    -3.8924 C.2     
  20 C20            6.0981     2.4764    -5.1308 C.2     
  21 C21            5.1305     1.7817    -5.9011 C.2     
  22 N22            7.4016     2.5652    -3.1054 N.pl3   
  23 C23            7.3969     4.0288    -2.9760 C.3     
  24 O24            4.7690     2.2117    -6.9828 O.2     
  25 C25            7.3534     4.3920    -1.4884 C.3     
  26 C26            8.5110     3.7007    -0.7644 C.3     
  27 C27            8.3634     2.1831    -0.8956 C.3     
  28 C28            8.4148     1.7944    -2.3720 C.3     
  29 C29            6.6718     3.7020    -5.5993 C.1     
  30 N30            7.1270     4.6742    -5.9710 N.1     
  31 H31           -1.2425     3.6514    -1.0593 H       
  32 H32           -1.6009     1.2492    -0.6540 H       
  33 H33            0.3194    -0.2217    -0.1939 H       
  34 H34            2.9559     3.1131    -0.5372 H       
  35 H35            1.0355     4.5841    -0.9966 H       
  36 H36            3.7139     1.0260     0.4441 H       
  37 H37            2.6135    -0.3657     0.5879 H       
  38 H38            4.6362    -0.7906     0.9284 H       
  39 H39            6.5432    -2.7377    -3.1776 H       
  40 H40            7.5253    -3.2753    -0.9855 H       
  41 H41            6.5728    -2.3040     1.0654 H       
  42 H42            4.6564    -1.9342    -4.4059 H       
  43 H43            3.3594    -1.0185    -3.6013 H       
  44 H44            3.9603     0.1409    -5.9225 H       
  45 H45            8.3014     4.4383    -3.4258 H       
  46 H46            6.5197     4.4372    -3.4777 H       
  47 H47            7.4464     5.4721    -1.3748 H       
  48 H48            6.4071     4.0609    -1.0606 H       
  49 H49            9.4559     4.0134    -1.2090 H       
  50 H50            8.4969     3.9772     0.2898 H       
  51 H51            9.1752     1.6910    -0.3600 H       
  52 H52            7.4076     1.8727    -0.4733 H       
  53 H53            8.2114     0.7287    -2.4766 H       
  54 H54            9.4017     2.0214    -2.7754 H       
@<TRIPOS>BOND
   1    1    2 ar
   2    1    6 ar
   3    1   31 1
   4    2    3 ar
   5    2   32 1
   6    3    4 ar
   7    3   33 1
   8    4    5 ar
   9    4    7 1
  10    5    6 ar
  11    5   34 1
  12    6   35 1
  13    7    8 1
  14    7   36 1
  15    7   37 1
  16    8    9 1
  17    9   10 ar
  18    9   11 ar
  19   10   14 ar
  20   10   38 1
  21   11   12 ar
  22   11   15 1
  23   12   13 ar
  24   12   39 1
  25   13   14 ar
  26   13   40 1
  27   14   41 1
  28   15   16 1
  29   15   42 1
  30   15   43 1
  31   16   17 1
  32   16   18 2
  33   17   21 am
  34   17   44 1
  35   18   19 1
  36   19   20 2
  37   19   22 1
  38   20   21 1
  39   20   29 1
  40   21   24 2
  41   22   23 1
  42   22   28 1
  43   23   25 1
  44   23   45 1
  45   23   46 1
  46   25   26 1
  47   25   47 1
  48   25   48 1
  49   26   27 1
  50   26   49 1
  51   26   50 1
  52   27   28 1
  53   27   51 1
  54   27   52 1
  55   28   53 1
  56   28   54 1
  57   29   30 3

#	End of record

