#	Name: ASD01883600
#	Creating user name:	WinNT
#	Creation time:	15. 06. 2019 19:46

#	Modifying user name:	WinNT
#	Modification time:	15. 06. 2019 19:46

#	Program:	/corina/corina34_cracker 3.40 0067  02.08.2006

@<TRIPOS>MOLECULE
ASD01883600
  48   51    0    0    0
SMALL
NO_CHARGES


@<TRIPOS>ATOM
   1 C1            -2.0651     2.1197     0.1323 C.2     
   2 C2            -2.5169     0.8540     0.2567 C.2     
   3 N3            -1.7182    -0.1285     0.7519 N.am    
   4 C4            -0.4535     0.1279     1.1337 C.2     
   5 C5             0.0656     1.4263     1.0254 C.2     
   6 C6            -0.7428     2.4347     0.5205 C.2     
   7 O7             0.2436    -0.7720     1.5758 O.2     
   8 Cl8            1.6955     1.7669     1.5164 Cl      
   9 C9            -0.2294     3.8176     0.3914 C.ar    
  10 C10           -0.0854     4.3949    -0.8707 C.ar    
  11 C11            0.3929     5.6842    -0.9870 C.ar    
  12 C12            0.7313     6.4066     0.1525 C.ar    
  13 C13            0.5885     5.8334     1.4093 C.ar    
  14 C14            0.1058     4.5481     1.5321 C.ar    
  15 O15            1.2028     7.6752     0.0357 O.3     
  16 C16            1.6232     8.3050     1.1620 C.ar    
  17 C17            2.9423     8.1904     1.5944 C.ar    
  18 C18            3.3306     8.8460     2.7446 C.ar    
  19 N19            2.4702     9.5737     3.4313 N.ar    
  20 C20            1.2127     9.7065     3.0540 C.ar    
  21 C21            0.7480     9.0872     1.9120 C.ar    
  22 C22           -2.2440    -1.4906     0.8726 C.3     
  23 C23           -1.9648    -2.2614    -0.4193 C.3     
  24 F24            0.5330     6.2447    -2.2082 F       
  25 C25            0.2738    10.5500     3.8775 C.3     
  26 C26            4.7549     8.7293     3.2229 C.3     
  27 C27           -2.3340    -3.7458    -0.4501 C.3     
  28 C28           -3.1701    -2.7331    -1.2350 C.3     
  29 H29           -2.7103     2.8884    -0.2667 H       
  30 H30           -3.5278     0.6182    -0.0413 H       
  31 H31           -0.3476     3.8335    -1.7553 H       
  32 H32            0.8525     6.3969     2.2920 H       
  33 H33           -0.0047     4.1037     2.5101 H       
  34 H34            3.6514     7.5961     1.0372 H       
  35 H35           -0.2823     9.2002     1.6086 H       
  36 H36           -1.7589    -1.9946     1.7085 H       
  37 H37           -3.3193    -1.4509     1.0468 H       
  38 H38           -1.0750    -1.9526    -0.9679 H       
  39 H39            0.3016    11.5793     3.5199 H       
  40 H40           -0.7401    10.1605     3.7854 H       
  41 H41            0.5809    10.5202     4.9230 H       
  42 H42            5.3528     9.5267     2.7816 H       
  43 H43            4.7814     8.8139     4.3093 H       
  44 H44            5.1606     7.7629     2.9237 H       
  45 H45           -1.6874    -4.4136    -1.0194 H       
  46 H46           -2.7759    -4.1733     0.4500 H       
  47 H47           -4.1621    -2.4943    -0.8514 H       
  48 H48           -3.0736    -2.7345    -2.3208 H       
@<TRIPOS>BOND
   1    1    2 2
   2    1    6 1
   3    1   29 1
   4    2    3 1
   5    2   30 1
   6    3    4 am
   7    3   22 1
   8    4    5 1
   9    4    7 2
  10    5    6 2
  11    5    8 1
  12    6    9 1
  13    9   10 ar
  14    9   14 ar
  15   10   11 ar
  16   10   31 1
  17   11   12 ar
  18   11   24 1
  19   12   13 ar
  20   12   15 1
  21   13   14 ar
  22   13   32 1
  23   14   33 1
  24   15   16 1
  25   16   17 ar
  26   16   21 ar
  27   17   18 ar
  28   17   34 1
  29   18   19 ar
  30   18   26 1
  31   19   20 ar
  32   20   21 ar
  33   20   25 1
  34   21   35 1
  35   22   23 1
  36   22   36 1
  37   22   37 1
  38   23   27 1
  39   23   28 1
  40   23   38 1
  41   25   39 1
  42   25   40 1
  43   25   41 1
  44   26   42 1
  45   26   43 1
  46   26   44 1
  47   27   28 1
  48   27   45 1
  49   27   46 1
  50   28   47 1
  51   28   48 1

#	End of record

