#	Name: ASD01882295
#	Creating user name:	WinNT
#	Creation time:	15. 06. 2019 19:44

#	Modifying user name:	WinNT
#	Modification time:	15. 06. 2019 19:44

#	Program:	/corina/corina34_cracker 3.40 0067  02.08.2006

@<TRIPOS>MOLECULE
ASD01882295
  60   63    0    0    0
SMALL
NO_CHARGES


@<TRIPOS>ATOM
   1 C1            -0.0159     1.3220     0.0093 C.2     
   2 N2             0.0021    -0.0041     0.0020 N.2     
   3 C3             1.1523    -0.6857    -0.0126 C.2     
   4 C4             2.3835     0.0173    -0.0206 C.2     
   5 C5             2.3523     1.3664    -0.0131 C.2     
   6 N6             1.1484     2.0132     0.0019 N.pl3   
   7 O7            -1.0993     2.1290     0.0184 O.3     
   8 C8             0.8540     3.4562     0.0125 C.3     
   9 C9            -0.6831     3.5211     0.0242 C.3     
  10 O10            1.1423    -1.9071    -0.0187 O.2     
  11 C11           -1.1944     4.2379    -1.2270 C.3     
  12 O12           -2.6209     4.3119    -1.1842 O.3     
  13 C13           -3.2386     4.9234    -2.2289 C.ar    
  14 C14           -4.6216     5.0305    -2.2523 C.ar    
  15 C15           -5.2471     5.6525    -3.3154 C.ar    
  16 C16           -4.4961     6.1681    -4.3555 C.ar    
  17 C17           -3.1176     6.0622    -4.3348 C.ar    
  18 C18           -2.4869     5.4466    -3.2710 C.ar    
  19 N19           -5.2777     8.2484    -8.0171 N.3     
  20 C20           -5.3814     8.9990    -6.7813 C.3     
  21 C21           -4.6942     8.2941    -5.6125 C.3     
  22 C22           -5.1825     6.8475    -5.5164 C.3     
  23 C23           -4.8117     6.1275    -6.8127 C.3     
  24 C24           -5.4636     6.8121    -8.0112 C.3     
  25 C25           -6.9516     6.4454    -8.0635 C.3     
  26 C26           -4.8077     6.2376    -9.2871 C.3     
  27 C27           -4.6775    10.3590    -6.9827 C.3     
  28 C28           -6.8421     9.2895    -6.4235 C.3     
  29 C29           -6.0013     8.8963    -9.1192 C.3     
  30 H30            3.3237    -0.5140    -0.0321 H       
  31 H31            3.2727     1.9314    -0.0185 H       
  32 H32            1.2651     3.9237     0.9072 H       
  33 H33            1.2480     3.9334    -0.8848 H       
  34 H34           -1.0396     4.0220     0.9243 H       
  35 H35           -0.7793     5.2451    -1.2639 H       
  36 H36           -0.8857     3.6850    -2.1142 H       
  37 H37           -5.2087     4.6276    -1.4403 H       
  38 H38           -6.3237     5.7358    -3.3343 H       
  39 H39           -2.5332     6.4651    -5.1488 H       
  40 H40           -1.4099     5.3684    -3.2529 H       
  41 H41           -3.6139     8.3031    -5.7664 H       
  42 H42           -4.9271     8.8181    -4.6839 H       
  43 H43           -6.2569     6.8180    -5.3592 H       
  44 H44           -3.7259     6.1380    -6.9346 H       
  45 H45           -5.1489     5.0896    -6.7594 H       
  46 H46           -7.3936     6.8495    -8.9743 H       
  47 H47           -7.0590     5.3607    -8.0578 H       
  48 H48           -7.4601     6.8654    -7.1957 H       
  49 H49           -3.7447     6.4786    -9.2893 H       
  50 H50           -4.9349     5.1552    -9.3052 H       
  51 H51           -5.2809     6.6739   -10.1668 H       
  52 H52           -5.1627    10.9027    -7.7933 H       
  53 H53           -4.7432    10.9417    -6.0639 H       
  54 H54           -3.6299    10.1923    -7.2331 H       
  55 H55           -7.3805     8.3495    -6.3029 H       
  56 H56           -6.8826     9.8535    -5.4916 H       
  57 H57           -7.3026     9.8722    -7.2212 H       
  58 H58           -5.5885     9.8905    -9.2901 H       
  59 H59           -5.8955     8.2984   -10.0244 H       
  60 H60           -7.0569     8.9806    -8.8608 H       
@<TRIPOS>BOND
   1    1    2 2
   2    1    6 1
   3    1    7 1
   4    2    3 1
   5    3    4 1
   6    3   10 2
   7    4    5 2
   8    4   30 1
   9    5    6 1
  10    5   31 1
  11    6    8 1
  12    7    9 1
  13    8    9 1
  14    8   32 1
  15    8   33 1
  16    9   11 1
  17    9   34 1
  18   11   12 1
  19   11   35 1
  20   11   36 1
  21   12   13 1
  22   13   14 ar
  23   13   18 ar
  24   14   15 ar
  25   14   37 1
  26   15   16 ar
  27   15   38 1
  28   16   17 ar
  29   16   22 1
  30   17   18 ar
  31   17   39 1
  32   18   40 1
  33   19   20 1
  34   19   24 1
  35   19   29 1
  36   20   21 1
  37   20   27 1
  38   20   28 1
  39   21   22 1
  40   21   41 1
  41   21   42 1
  42   22   23 1
  43   22   43 1
  44   23   24 1
  45   23   44 1
  46   23   45 1
  47   24   25 1
  48   24   26 1
  49   25   46 1
  50   25   47 1
  51   25   48 1
  52   26   49 1
  53   26   50 1
  54   26   51 1
  55   27   52 1
  56   27   53 1
  57   27   54 1
  58   28   55 1
  59   28   56 1
  60   28   57 1
  61   29   58 1
  62   29   59 1
  63   29   60 1

#	End of record

