#	Name: ASD01883518
#	Creating user name:	WinNT
#	Creation time:	15. 06. 2019 19:46

#	Modifying user name:	WinNT
#	Modification time:	15. 06. 2019 19:46

#	Program:	/corina/corina34_cracker 3.40 0067  02.08.2006

@<TRIPOS>MOLECULE
ASD01883518
  41   43    0    0    0
SMALL
NO_CHARGES


@<TRIPOS>ATOM
   1 N1            -0.0161     1.3418     0.0120 N.am    
   2 C2            -0.0012     0.0008    -0.1032 C.2     
   3 C3            -1.2193    -0.7214    -0.0997 C.2     
   4 C4            -2.4235    -0.0120     0.0251 C.2     
   5 C5            -2.3748     1.3877     0.1419 C.2     
   6 C6            -1.1825     2.0256     0.1382 C.2     
   7 O7             1.0593    -0.5912    -0.2107 O.2     
   8 C8            -1.2222    -2.1482    -0.2216 C.1     
   9 N9            -1.2245    -3.2801    -0.3184 N.1     
  10 C10            1.2508     2.0773     0.0070 C.3     
  11 C11            1.6152     2.4557    -1.4300 C.3     
  12 C12            2.9384     3.2239    -1.4352 C.3     
  13 C13            4.0646     2.3030    -0.9611 C.3     
  14 N14           -3.6378    -0.6788     0.0327 N.pl3   
  15 C15            3.2403     3.7100    -2.8541 C.3     
  16 N16           -4.1277    -1.4857    -0.9995 N.2     
  17 C17           -5.2954    -1.9639    -0.6784 C.2     
  18 C18           -5.6355    -1.4612     0.6507 C.ar    
  19 C19           -4.5534    -0.6590     1.0588 C.ar    
  20 C20           -6.7349    -1.6272     1.4989 C.ar    
  21 C21           -6.7535    -1.0056     2.7142 C.ar    
  22 C22           -5.6899    -0.2081     3.1172 C.ar    
  23 C23           -4.5935    -0.0362     2.3023 C.ar    
  24 H24           -3.2895     1.9536     0.2386 H       
  25 H25           -1.1578     3.1015     0.2289 H       
  26 H26            1.1480     2.9821     0.6060 H       
  27 H27            2.0367     1.4502     0.4280 H       
  28 H28            1.7180     1.5509    -2.0291 H       
  29 H29            0.8294     3.0829    -1.8510 H       
  30 H30            2.8637     4.0808    -0.7657 H       
  31 H31            5.0072     2.8503    -0.9648 H       
  32 H32            3.8495     1.9567     0.0497 H       
  33 H33            4.1393     1.4461    -1.6306 H       
  34 H34            2.4381     4.3660    -3.1919 H       
  35 H35            4.1830     4.2572    -2.8578 H       
  36 H36            3.3151     2.8531    -3.5236 H       
  37 H37           -5.9044    -2.6162    -1.2865 H       
  38 H38           -7.5665    -2.2449     1.1935 H       
  39 H39           -7.6032    -1.1347     3.3682 H       
  40 H40           -5.7208     0.2772     4.0816 H       
  41 H41           -3.7710     0.5853     2.6241 H       
@<TRIPOS>BOND
   1    1    2 am
   2    1   10 1
   3    1    6 1
   4    2    3 1
   5    2    7 2
   6    3    4 2
   7    3    8 1
   8    4    5 1
   9    4   14 1
  10    5    6 2
  11    5   24 1
  12    6   25 1
  13    8    9 3
  14   10   11 1
  15   10   26 1
  16   10   27 1
  17   11   12 1
  18   11   28 1
  19   11   29 1
  20   12   13 1
  21   12   15 1
  22   12   30 1
  23   13   31 1
  24   13   32 1
  25   13   33 1
  26   14   16 1
  27   14   19 1
  28   15   34 1
  29   15   35 1
  30   15   36 1
  31   16   17 2
  32   17   18 1
  33   17   37 1
  34   18   19 ar
  35   18   20 ar
  36   19   23 ar
  37   20   21 ar
  38   20   38 1
  39   21   22 ar
  40   21   39 1
  41   22   23 ar
  42   22   40 1
  43   23   41 1

#	End of record

