#	Name: ASD01814723
#	Creating user name:	WinNT
#	Creation time:	15. 06. 2019 19:32

#	Modifying user name:	WinNT
#	Modification time:	15. 06. 2019 19:32

#	Program:	/corina/corina34_cracker 3.40 0067  02.08.2006

@<TRIPOS>MOLECULE
ASD01814723
  53   57    0    0    0
SMALL
NO_CHARGES


@<TRIPOS>ATOM
   1 O1            -0.0173     1.4248     0.0099 O.3     
   2 C2             0.0021    -0.0041     0.0020 C.3     
   3 H3             0.5121    -0.3565    -0.8945 H       
   4 C4             0.7396    -0.5125     1.2435 C.3     
   5 O5             0.7074    -1.9411     1.2633 O.3     
   6 C6            -0.6087    -2.4942     1.3259 C.3     
   7 C7            -1.4004    -2.0654     0.0877 C.3     
   8 C8            -1.4345    -0.5356     0.0160 C.3     
   9 H9            -1.9603    -0.1423     0.8861 H       
  10 N10           -2.1241    -0.1162    -1.2065 N.am    
  11 C11           -3.3217     0.7160    -1.1082 C.3     
  12 C12           -3.3326     1.7821    -2.2009 C.3     
  13 C13           -3.0793     1.1506    -3.5439 C.ar    
  14 C14           -2.2365     0.0551    -3.6389 C.ar    
  15 C15           -1.9633    -0.5297    -4.8874 C.ar    
  16 C16           -2.5329    -0.0445    -6.0204 C.ar    
  17 C17           -2.2280    -0.6851    -7.3499 C.3     
  18 C18           -1.1061     0.0633    -8.0226 C.ar    
  19 C19           -1.3799     1.1339    -8.8602 C.ar    
  20 C20           -0.3169     1.7934    -9.4573 C.ar    
  21 C21            0.9729     1.3644    -9.1995 C.ar    
  22 Cl22           2.3135     2.1816    -9.9402 Cl      
  23 N23            1.1954     0.3410    -8.3963 N.ar    
  24 C24            0.2082    -0.3056    -7.8077 C.ar    
  25 C25           -3.4079     1.0556    -5.9546 C.ar    
  26 C26           -4.0141     1.5689    -7.1127 C.ar    
  27 C27           -4.8575     2.6339    -7.0184 C.ar    
  28 C28           -5.1307     3.2261    -5.7872 C.ar    
  29 C29           -4.5614     2.7574    -4.6431 C.ar    
  30 C30           -3.6849     1.6594    -4.7008 C.ar    
  31 C31           -1.6424    -0.4984    -2.4039 C.2     
  32 O32           -0.7274    -1.2961    -2.4696 O.2     
  33 H33            0.8606     1.8301     0.0037 H       
  34 H34            1.7748    -0.1726     1.2160 H       
  35 H35            0.2534    -0.1256     2.1390 H       
  36 H36           -0.5448    -3.5819     1.3577 H       
  37 H37           -1.1125    -2.1332     2.2225 H       
  38 H38           -0.9193    -2.4604    -0.8071 H       
  39 H39           -2.4182    -2.4497     0.1550 H       
  40 H40           -4.2054     0.0865    -1.2124 H       
  41 H41           -3.3415     1.2021    -0.1328 H       
  42 H42           -4.3032     2.2780    -2.2122 H       
  43 H43           -2.5554     2.5182    -1.9954 H       
  44 H44           -1.2927    -1.3742    -4.9463 H       
  45 H45           -1.9308    -1.7221    -7.1939 H       
  46 H46           -3.1161    -0.6527    -7.9810 H       
  47 H47           -2.3973     1.4464    -9.0433 H       
  48 H48           -0.4934     2.6312   -10.1156 H       
  49 H49            0.4293    -1.1358    -7.1534 H       
  50 H50           -3.8119     1.1211    -8.0745 H       
  51 H51           -5.3213     3.0256    -7.9116 H       
  52 H52           -5.8038     4.0694    -5.7400 H       
  53 H53           -4.7817     3.2266    -3.6956 H       
@<TRIPOS>BOND
   1    1    2 1
   2    1   33 1
   3    2    3 1
   4    2    8 1
   5    2    4 1
   6    4    5 1
   7    4   34 1
   8    4   35 1
   9    5    6 1
  10    6    7 1
  11    6   36 1
  12    6   37 1
  13    7    8 1
  14    7   38 1
  15    7   39 1
  16    8    9 1
  17    8   10 1
  18   10   31 am
  19   10   11 1
  20   11   12 1
  21   11   40 1
  22   11   41 1
  23   12   13 1
  24   12   42 1
  25   12   43 1
  26   13   30 ar
  27   13   14 ar
  28   14   15 ar
  29   14   31 1
  30   15   16 ar
  31   15   44 1
  32   16   17 1
  33   16   25 ar
  34   17   18 1
  35   17   45 1
  36   17   46 1
  37   18   24 ar
  38   18   19 ar
  39   19   20 ar
  40   19   47 1
  41   20   21 ar
  42   20   48 1
  43   21   22 1
  44   21   23 ar
  45   23   24 ar
  46   24   49 1
  47   25   30 ar
  48   25   26 ar
  49   26   27 ar
  50   26   50 1
  51   27   28 ar
  52   27   51 1
  53   28   29 ar
  54   28   52 1
  55   29   30 ar
  56   29   53 1
  57   31   32 2

#	End of record

