#	Name: ASD01940213
#	Creating user name:	WinNT
#	Creation time:	15. 06. 2019 20:12

#	Modifying user name:	WinNT
#	Modification time:	15. 06. 2019 20:12

#	Program:	/corina/corina34_cracker 3.40 0067  02.08.2006

@<TRIPOS>MOLECULE
ASD01940213
  48   49    0    0    0
SMALL
NO_CHARGES


@<TRIPOS>ATOM
   1 Br1            5.9242    -3.1556    -2.4178 Br      
   2 F2             3.2065     1.6159     2.0910 F       
   3 C3             2.2055     1.9980     1.2681 C.ar    
   4 C4             2.4738     2.2926    -0.0621 C.ar    
   5 C5             1.4377     2.6865    -0.9073 C.ar    
   6 C6             0.1443     2.7824    -0.4164 C.ar    
   7 C7            -0.1170     2.4878     0.9091 C.ar    
   8 C8             0.9093     2.0908     1.7493 C.ar    
   9 N9             3.7829     2.1946    -0.5534 N.pl3   
  10 N10            1.7027     2.9854    -2.2505 N.am    
  11 C11            4.2773     0.9600    -0.9836 C.ar    
  12 C12            3.4330    -0.1399    -1.0581 C.ar    
  13 C13            3.9243    -1.3588    -1.4841 C.ar    
  14 C14            5.2562    -1.4850    -1.8360 C.ar    
  15 C15            6.1010    -0.3912    -1.7626 C.ar    
  16 C16            5.6144     0.8320    -1.3433 C.ar    
  17 Cl17           6.6743     2.2038    -1.2515 Cl      
  18 F18            0.6476     1.7987     3.0421 F       
  19 S19            0.8585     4.1888    -3.0131 S.o2    
  20 O20            1.4198     4.2382    -4.3176 O.2     
  21 O21           -0.5048     3.8402    -2.8148 O.2     
  22 C22           -0.7735     6.9257    -2.2652 C.3     
  23 C23           -0.9183     8.0695    -1.2594 C.3     
  24 C24           -0.2199     7.6904     0.0481 C.3     
  25 C25           -1.6365     7.2155    -3.4949 C.3     
  26 C26           -1.6473     5.9900    -4.4107 C.3     
  27 C27            1.2729     5.6909    -2.0845 C.3     
  28 O28            0.5948     6.8092    -2.6603 O.3     
  29 H29           -0.6596     3.0877    -1.0698 H       
  30 H30           -1.1252     2.5632     1.2890 H       
  31 H31            4.3457     2.9835    -0.5949 H       
  32 H32            2.3807     2.4875    -2.7336 H       
  33 H33            2.3932    -0.0427    -0.7829 H       
  34 H34            3.2678    -2.2144    -1.5421 H       
  35 H35            7.1404    -0.4929    -2.0377 H       
  36 H36           -1.0992     5.9932    -1.8043 H       
  37 H37           -0.4619     8.9716    -1.6668 H       
  38 H38           -1.9755     8.2523    -1.0668 H       
  39 H39           -0.6628     6.7769     0.4449 H       
  40 H40            0.8412     7.5275    -0.1408 H       
  41 H41           -0.3406     8.4967     0.7715 H       
  42 H42           -2.6549     7.4419    -3.1789 H       
  43 H43           -1.2254     8.0687    -4.0344 H       
  44 H44           -0.6228     5.7128    -4.6588 H       
  45 H45           -2.1351     5.1594    -3.9005 H       
  46 H46           -2.1918     6.2247    -5.3254 H       
  47 H47            0.9629     5.5734    -1.0461 H       
  48 H48            2.3493     5.8582    -2.1256 H       
@<TRIPOS>BOND
   1    1   14 1
   2    2    3 1
   3    3    4 ar
   4    3    8 ar
   5    4    5 ar
   6    4    9 1
   7    5    6 ar
   8    5   10 1
   9    6    7 ar
  10    6   29 1
  11    7    8 ar
  12    7   30 1
  13    8   18 1
  14    9   11 1
  15    9   31 1
  16   10   19 am
  17   10   32 1
  18   11   12 ar
  19   11   16 ar
  20   12   13 ar
  21   12   33 1
  22   13   14 ar
  23   13   34 1
  24   14   15 ar
  25   15   16 ar
  26   15   35 1
  27   16   17 1
  28   19   20 2
  29   19   21 2
  30   19   27 1
  31   22   25 1
  32   22   28 1
  33   22   23 1
  34   22   36 1
  35   23   24 1
  36   23   37 1
  37   23   38 1
  38   24   39 1
  39   24   40 1
  40   24   41 1
  41   25   26 1
  42   25   42 1
  43   25   43 1
  44   26   44 1
  45   26   45 1
  46   26   46 1
  47   27   28 1
  48   27   47 1
  49   27   48 1

#	End of record

