#	Name: ASD01720155
#	Creating user name:	WinNT
#	Creation time:	15. 06. 2019 19:23

#	Modifying user name:	WinNT
#	Modification time:	15. 06. 2019 19:23

#	Program:	/corina/corina34_cracker 3.40 0067  02.08.2006

@<TRIPOS>MOLECULE
ASD01720155
  55   59    0    0    0
SMALL
NO_CHARGES


@<TRIPOS>ATOM
   1 C1             0.2092     1.4474    -0.3379 C.3     
   2 N2             0.0987    -0.0134    -0.1627 N.am    
   3 C3             1.0337    -0.6786     0.7569 C.3     
   4 C4             2.4630    -0.5365     0.2179 C.3     
   5 C5             1.6739     1.7678    -0.4729 C.2     
   6 C6             2.2954     2.9658    -0.8599 C.2     
   7 C7             2.6754     0.8884    -0.2233 C.2     
   8 N8             3.8326     1.5350    -0.4458 N.pl3   
   9 N9             3.5986     2.7459    -0.8183 N.2     
  10 C10            5.1657     0.9485    -0.2872 C.3     
  11 C11            5.5982     0.3247    -1.5891 C.2     
  12 C12           -0.8360    -0.7203    -0.8284 C.2     
  13 C13           -1.8509    -0.0246    -1.6268 C.2     
  14 O14           -0.8379    -1.9357    -0.7670 O.2     
  15 C15           -2.6901    -0.5992    -2.5577 C.2     
  16 C16           -3.4911     0.4235    -3.0752 C.2     
  17 C17           -3.1352     1.5793    -2.4651 C.2     
  18 N18           -2.1430     1.3197    -1.5790 N.pl3   
  19 C19            1.6246     4.2255    -1.2397 C.2     
  20 N20            2.3581     5.3004    -1.5905 N.am    
  21 O21            0.4106     4.2929    -1.2359 O.2     
  22 C22            1.7244     6.4609    -2.0461 C.ar    
  23 C23            0.4706     8.7568    -2.9476 C.ar    
  24 C24           -0.1197     7.9912    -1.9585 C.ar    
  25 C25            0.5033     6.8448    -1.5064 C.ar    
  26 C26            2.3171     7.2349    -3.0350 C.ar    
  27 C27            1.6886     8.3805    -3.4828 C.ar    
  28 N28            4.9156    -0.5945    -2.2877 N.2     
  29 C29            6.7349     0.5969    -2.2578 C.2     
  30 N30            6.7307    -0.1856    -3.3809 N.pl3   
  31 C31            5.5889    -0.9065    -3.3612 C.2     
  32 C32            2.3279     9.2175    -4.5607 C.3     
  33 H33           -0.3228     1.7548    -1.2382 H       
  34 H34           -0.2042     1.9582     0.5318 H       
  35 H35            0.9681    -0.2145     1.7410 H       
  36 H36            0.7775    -1.7352     0.8346 H       
  37 H37            3.1762    -0.7860     1.0034 H       
  38 H38            2.6017    -1.2063    -0.6308 H       
  39 H39            5.8740     1.7272    -0.0044 H       
  40 H40            5.1364     0.1845     0.4897 H       
  41 H41           -2.7224    -1.6424    -2.8352 H       
  42 H42           -4.2576     0.3117    -3.8279 H       
  43 H43           -3.5733     2.5487    -2.6513 H       
  44 H44           -1.7072     1.9734    -1.0101 H       
  45 H45            3.3255     5.2691    -1.5270 H       
  46 H46           -0.0190     9.6528    -3.2997 H       
  47 H47           -1.0712     8.2879    -1.5424 H       
  48 H48            0.0417     6.2472    -0.7343 H       
  49 H49            3.2687     6.9417    -3.4533 H       
  50 H50            7.5022     1.2982    -1.9647 H       
  51 H51            7.4182    -0.2150    -4.0646 H       
  52 H52            5.2825    -1.6208    -4.1111 H       
  53 H53            2.9680     9.9719    -4.1032 H       
  54 H54            2.9264     8.5784    -5.2099 H       
  55 H55            1.5518     9.7076    -5.1485 H       
@<TRIPOS>BOND
   1    1    2 1
   2    1    5 1
   3    1   33 1
   4    1   34 1
   5    2    3 1
   6    2   12 am
   7    3    4 1
   8    3   35 1
   9    3   36 1
  10    4    7 1
  11    4   37 1
  12    4   38 1
  13    5    7 2
  14    5    6 1
  15    6    9 2
  16    6   19 1
  17    7    8 1
  18    8    9 1
  19    8   10 1
  20   10   11 1
  21   10   39 1
  22   10   40 1
  23   11   29 2
  24   11   28 1
  25   12   13 1
  26   12   14 2
  27   13   15 2
  28   13   18 1
  29   15   16 1
  30   15   41 1
  31   16   17 2
  32   16   42 1
  33   17   18 1
  34   17   43 1
  35   18   44 1
  36   19   20 am
  37   19   21 2
  38   20   22 1
  39   20   45 1
  40   22   26 ar
  41   22   25 ar
  42   23   24 ar
  43   23   27 ar
  44   23   46 1
  45   24   25 ar
  46   24   47 1
  47   25   48 1
  48   26   27 ar
  49   26   49 1
  50   27   32 1
  51   28   31 2
  52   29   30 1
  53   29   50 1
  54   30   31 1
  55   30   51 1
  56   31   52 1
  57   32   53 1
  58   32   54 1
  59   32   55 1

#	End of record

