#	Name: ASD01880732
#	Creating user name:	WinNT
#	Creation time:	15. 06. 2019 19:41

#	Modifying user name:	WinNT
#	Modification time:	15. 06. 2019 19:41

#	Program:	/corina/corina34_cracker 3.40 0067  02.08.2006

@<TRIPOS>MOLECULE
ASD01880732
  51   54    0    0    0
SMALL
NO_CHARGES


@<TRIPOS>ATOM
   1 N1            -0.0042     1.3009    -0.2122 N.ar    
   2 C2             0.0326    -0.0158    -0.2353 C.ar    
   3 N3             1.1506    -0.6838    -0.0336 N.ar    
   4 C4             2.2917    -0.0501     0.2019 C.ar    
   5 C5             2.3008     1.3321     0.2349 C.ar    
   6 C6             1.0991     2.0075     0.0177 C.ar    
   7 C7             3.5760     2.0901     0.4998 C.3     
   8 O8             4.3003     2.2457    -0.7222 O.3     
   9 C9             5.4812     2.9113    -0.6580 C.ar    
  10 C10            6.2373     3.0983    -1.8111 C.ar    
  11 C11            7.4314     3.7722    -1.7449 C.ar    
  12 C12            7.8945     4.2734    -0.5239 C.ar    
  13 C13            7.1311     4.0832     0.6312 C.ar    
  14 C14            5.9315     3.4107     0.5583 C.ar    
  15 C15            8.4688     4.1391    -2.7767 C.3     
  16 N16            9.5219     4.8658    -2.0584 N.am    
  17 C17            9.1865     4.9410    -0.7590 C.2     
  18 O18            9.8544     5.4833     0.1001 O.2     
  19 Br19           3.8863    -1.0250     0.4897 Br      
  20 C20            7.6176     4.6171     1.9538 C.3     
  21 N21            1.0561     3.3922     0.0402 N.3     
  22 C22           -0.1953     3.8706     0.6456 C.3     
  23 C23           -0.1751     5.4003     0.7048 C.3     
  24 O24            0.0226     5.9208    -0.6126 O.3     
  25 C25            1.2324     5.4756    -1.2319 C.3     
  26 C26            1.2265     3.9467    -1.3107 C.3     
  27 C27           10.4749     6.8536    -3.1175 C.3     
  28 C28           10.7388     5.4181    -2.6587 C.3     
  29 H29           -0.8790    -0.5632    -0.4244 H       
  30 H30            3.3369     3.0721     0.9080 H       
  31 H31            4.1851     1.5378     1.2154 H       
  32 H32            5.8853     2.7134    -2.7568 H       
  33 H33            5.3418     3.2644     1.4512 H       
  34 H34            8.8793     3.2379    -3.2322 H       
  35 H35            8.0272     4.7782    -3.5413 H       
  36 H36            7.2456     5.6319     2.0951 H       
  37 H37            7.2517     3.9806     2.7594 H       
  38 H38            8.7076     4.6251     1.9636 H       
  39 H39           -1.0410     3.5409     0.0421 H       
  40 H40           -0.2885     3.4686     1.6545 H       
  41 H41           -1.1243     5.7619     1.1003 H       
  42 H42            0.6383     5.7289     1.3517 H       
  43 H43            1.3012     5.8915    -2.2371 H       
  44 H44            2.0868     5.8063    -0.6412 H       
  45 H45            2.1711     3.6001    -1.7298 H       
  46 H46            0.4035     3.6181    -1.9454 H       
  47 H47           11.3803     7.2646    -3.5641 H       
  48 H48            9.6720     6.8577    -3.8547 H       
  49 H49           10.1844     7.4614    -2.2606 H       
  50 H50           11.5417     5.4141    -1.9215 H       
  51 H51           11.0293     4.8104    -3.5156 H       
@<TRIPOS>BOND
   1    1    2 ar
   2    1    6 ar
   3    2    3 ar
   4    2   29 1
   5    3    4 ar
   6    4    5 ar
   7    4   19 1
   8    5    6 ar
   9    5    7 1
  10    6   21 1
  11    7    8 1
  12    7   30 1
  13    7   31 1
  14    8    9 1
  15    9   10 ar
  16    9   14 ar
  17   10   11 ar
  18   10   32 1
  19   11   12 ar
  20   11   15 1
  21   12   13 ar
  22   12   17 1
  23   13   14 ar
  24   13   20 1
  25   14   33 1
  26   15   16 1
  27   15   34 1
  28   15   35 1
  29   16   17 am
  30   16   28 1
  31   17   18 2
  32   20   36 1
  33   20   37 1
  34   20   38 1
  35   21   22 1
  36   21   26 1
  37   22   23 1
  38   22   39 1
  39   22   40 1
  40   23   24 1
  41   23   41 1
  42   23   42 1
  43   24   25 1
  44   25   26 1
  45   25   43 1
  46   25   44 1
  47   26   45 1
  48   26   46 1
  49   27   28 1
  50   27   47 1
  51   27   48 1
  52   27   49 1
  53   28   50 1
  54   28   51 1

#	End of record

