#	Name: ASD02508038
#	Creating user name:	WinNT
#	Creation time:	15. 06. 2019 20:23

#	Modifying user name:	WinNT
#	Modification time:	15. 06. 2019 20:23

#	Program:	/corina/corina34_cracker 3.40 0067  02.08.2006

@<TRIPOS>MOLECULE
ASD02508038
  30   32    0    0    0
SMALL
NO_CHARGES


@<TRIPOS>ATOM
   1 C1            -0.0170     1.3989     0.0097 C.ar    
   2 C2             0.0021    -0.0041     0.0020 C.ar    
   3 C3             1.2105     2.0621     0.0016 C.ar    
   4 C4             2.4090     1.3711    -0.0133 C.ar    
   5 C5             2.4101    -0.0096    -0.0208 C.ar    
   6 C6             1.1990    -0.6927    -0.0127 C.ar    
   7 N7            -1.1198     2.2339     0.0192 N.am    
   8 C8            -0.9225     3.5557     0.0247 C.2     
   9 S9             0.8333     3.7906     0.0134 S.3     
  10 N10            1.1930    -2.0917    -0.0198 N.am    
  11 S11            2.2132    -2.9292     0.9803 S.o2    
  12 C12            1.7229    -2.5803     2.6363 C.2     
  13 C13            0.8301    -3.2805     3.3377 C.2     
  14 C14           -2.4763     1.6806     0.0225 C.3     
  15 O15           -1.7766     4.4229     0.0330 O.2     
  16 O16            1.9446    -4.3078     0.7643 O.2     
  17 O17            3.5013    -2.3529     0.8133 O.2     
  18 S18            2.3414    -1.2600     3.6201 S.3     
  19 C19            1.3167    -1.7428     4.9656 C.2     
  20 C20            0.6050    -2.8175     4.6226 C.2     
  21 H21           -0.9291    -0.5511     0.0080 H       
  22 H22            3.3439     1.9118    -0.0193 H       
  23 H23            3.3429    -0.5539    -0.0330 H       
  24 H24            0.5912    -2.5711    -0.6105 H       
  25 H25            0.3211    -4.1431     2.9335 H       
  26 H26           -2.8080     1.5381     1.0510 H       
  27 H27           -3.1512     2.3701    -0.4846 H       
  28 H28           -2.4790     0.7220    -0.4963 H       
  29 H29            1.2731    -1.2471     5.9241 H       
  30 H30           -0.0954    -3.2896     5.2958 H       
@<TRIPOS>BOND
   1    1    2 ar
   2    1    3 ar
   3    1    7 1
   4    2    6 ar
   5    2   21 1
   6    3    4 ar
   7    3    9 1
   8    4    5 ar
   9    4   22 1
  10    5    6 ar
  11    5   23 1
  12    6   10 1
  13    7    8 am
  14    7   14 1
  15    8    9 1
  16    8   15 2
  17   10   11 am
  18   10   24 1
  19   11   12 1
  20   11   16 2
  21   11   17 2
  22   12   13 2
  23   12   18 1
  24   13   20 1
  25   13   25 1
  26   14   26 1
  27   14   27 1
  28   14   28 1
  29   18   19 1
  30   19   20 2
  31   19   29 1
  32   20   30 1

#	End of record

