#	Name: ASD00190002
#	Creating user name:	WinNT
#	Creation time:	15. 06. 2019 18:33

#	Modifying user name:	WinNT
#	Modification time:	15. 06. 2019 18:33

#	Program:	/corina/corina34_cracker 3.40 0067  02.08.2006

@<TRIPOS>MOLECULE
ASD00190002
  44   48    0    0    0
SMALL
NO_CHARGES


@<TRIPOS>ATOM
   1 C1            -0.0154     1.3888     0.0328 C.ar    
   2 C2             0.0026    -0.0011     0.0113 C.ar    
   3 C3             1.1803    -0.6878    -0.0103 C.ar    
   4 C4             2.3965     0.0124    -0.0116 C.ar    
   5 C5             2.3716     1.4267     0.0099 C.ar    
   6 C6             1.1501     2.1009     0.0323 C.ar    
   7 N7             3.5675    -0.6413    -0.0322 N.ar    
   8 C8             4.7280    -0.0215    -0.0337 C.ar    
   9 C9             4.8213     1.3785    -0.0132 C.ar    
  10 C10            3.6486     2.1455     0.0083 C.ar    
  11 N11            5.8676     2.2770    -0.0097 N.pl3   
  12 C12            5.3194     3.5317     0.0141 C.2     
  13 N13            4.0041     3.4340     0.0243 N.2     
  14 N14            5.8936    -0.7740    -0.0558 N.pl3   
  15 C15            5.8284    -2.1665     0.0433 C.ar    
  16 C16            6.0756     4.7863     0.0255 C.2     
  17 C17            6.7392    -2.9569    -0.6462 C.ar    
  18 C18            6.6718    -4.3327    -0.5461 C.ar    
  19 C19            5.6988    -4.9235     0.2391 C.ar    
  20 C20            4.7902    -4.1396     0.9264 C.ar    
  21 C21            4.8560    -2.7632     0.8360 C.ar    
  22 C22            7.4184     4.9190     0.0143 C.2     
  23 C23            7.7895     6.3289     0.0313 C.2     
  24 C24            6.7066     7.1031     0.0533 C.2     
  25 C25            5.5039     6.1867     0.0455 C.3     
  26 C26            5.6280    -6.4251     0.3455 C.3     
  27 H27           -0.9608     1.9109     0.0456 H       
  28 H28           -0.9304    -0.5451     0.0122 H       
  29 H29            1.1772    -1.7676    -0.0262 H       
  30 H30            1.1263     3.1806     0.0488 H       
  31 H31            6.8131     2.0610    -0.0215 H       
  32 H32            6.7538    -0.3336    -0.1400 H       
  33 H33            7.4989    -2.4961    -1.2601 H       
  34 H34            7.3796    -4.9478    -1.0818 H       
  35 H35            4.0311    -4.6043     1.5381 H       
  36 H36            4.1464    -2.1515     1.3733 H       
  37 H37            8.1190     4.0973    -0.0046 H       
  38 H38            8.8053     6.6955     0.0271 H       
  39 H39            6.6903     8.1828     0.0693 H       
  40 H40            4.8969     6.3664    -0.8418 H       
  41 H41            4.9100     6.3341     0.9476 H       
  42 H42            6.2460    -6.7598     1.1787 H       
  43 H43            4.5950    -6.7291     0.5142 H       
  44 H44            5.9920    -6.8725    -0.5794 H       
@<TRIPOS>BOND
   1    1    2 ar
   2    1    6 ar
   3    1   27 1
   4    2    3 ar
   5    2   28 1
   6    3    4 ar
   7    3   29 1
   8    4    5 ar
   9    4    7 ar
  10    5    6 ar
  11    5   10 ar
  12    6   30 1
  13    7    8 ar
  14    8    9 ar
  15    8   14 1
  16    9   10 ar
  17    9   11 1
  18   10   13 1
  19   11   12 1
  20   11   31 1
  21   12   13 2
  22   12   16 1
  23   14   15 1
  24   14   32 1
  25   15   17 ar
  26   15   21 ar
  27   16   22 2
  28   16   25 1
  29   17   18 ar
  30   17   33 1
  31   18   19 ar
  32   18   34 1
  33   19   20 ar
  34   19   26 1
  35   20   21 ar
  36   20   35 1
  37   21   36 1
  38   22   23 1
  39   22   37 1
  40   23   24 2
  41   23   38 1
  42   24   25 1
  43   24   39 1
  44   25   40 1
  45   25   41 1
  46   26   42 1
  47   26   43 1
  48   26   44 1

#	End of record

