#	Name: ASD01812065
#	Creating user name:	WinNT
#	Creation time:	15. 06. 2019 19:27

#	Modifying user name:	WinNT
#	Modification time:	15. 06. 2019 19:27

#	Program:	/corina/corina34_cracker 3.40 0067  02.08.2006

@<TRIPOS>MOLECULE
ASD01812065
  40   43    0    0    0
SMALL
NO_CHARGES


@<TRIPOS>ATOM
   1 N1             0.0021     1.3702     0.0128 N.pl3   
   2 C2             1.0942     2.1336     0.1448 C.2     
   3 C3             2.3672     1.6003     0.1539 C.2     
   4 C4             2.5291     0.1437     0.0143 C.2     
   5 C5             1.3019    -0.6596    -0.1280 C.ar    
   6 C6             1.3595    -2.0491    -0.2664 C.ar    
   7 C7             0.1899    -2.7697    -0.3979 C.ar    
   8 C8            -1.0358    -2.1207    -0.3934 C.ar    
   9 C9            -1.1071    -0.7496    -0.2580 C.ar    
  10 C10            0.0610    -0.0008    -0.1232 C.ar    
  11 C11            3.5414     2.4719     0.3000 C.2     
  12 O12            3.3960     3.6734     0.4142 O.2     
  13 O13            4.7796     1.9390     0.3075 O.3     
  14 O14            3.6315    -0.3758     0.0160 O.2     
  15 C15           -1.3117     2.0185     0.0191 C.3     
  16 C16           -1.3935     3.1789     2.2081 C.ar    
  17 C17           -1.8072     2.1358     1.4375 C.ar    
  18 C18           -2.6822     1.1751     1.9403 C.ar    
  19 C19           -3.1485     1.2515     3.2170 C.ar    
  20 C20           -2.7433     2.3137     4.0426 C.ar    
  21 C21           -3.2039     2.4265     5.3657 C.ar    
  22 C22           -2.7902     3.4693     6.1360 C.ar    
  23 C23           -1.9151     4.4305     5.6329 C.ar    
  24 C24           -1.4489     4.3542     4.3567 C.ar    
  25 C25           -1.8531     3.2910     3.5311 C.ar    
  26 F26           -2.3090    -0.1326    -0.2564 F       
  27 F27            2.5526    -2.6828    -0.2719 F       
  28 H28            0.9750     3.2021     0.2471 H       
  29 H29            0.2292    -3.8437    -0.5052 H       
  30 H30           -1.9445    -2.6950    -0.4974 H       
  31 H31            5.5209     2.5521     0.4061 H       
  32 H32           -1.2284     3.0127    -0.4200 H       
  33 H33           -2.0141     1.4219    -0.5629 H       
  34 H34           -0.7117     3.9138     1.8062 H       
  35 H35           -2.9954     0.3578     1.3077 H       
  36 H36           -3.8266     0.4998     3.5931 H       
  37 H37           -3.8828     1.6896     5.7688 H       
  38 H38           -3.1456     3.5536     7.1524 H       
  39 H39           -1.6027     5.2483     6.2653 H       
  40 H40           -0.7718     5.1066     3.9802 H       
@<TRIPOS>BOND
   1    1    2 1
   2    1   10 1
   3    1   15 1
   4    2    3 2
   5    2   28 1
   6    3    4 1
   7    3   11 1
   8    4    5 1
   9    4   14 2
  10    5    6 ar
  11    5   10 ar
  12    6    7 ar
  13    6   27 1
  14    7    8 ar
  15    7   29 1
  16    8    9 ar
  17    8   30 1
  18    9   10 ar
  19    9   26 1
  20   11   12 2
  21   11   13 1
  22   13   31 1
  23   15   17 1
  24   15   32 1
  25   15   33 1
  26   16   17 ar
  27   16   25 ar
  28   16   34 1
  29   17   18 ar
  30   18   19 ar
  31   18   35 1
  32   19   20 ar
  33   19   36 1
  34   20   21 ar
  35   20   25 ar
  36   21   22 ar
  37   21   37 1
  38   22   23 ar
  39   22   38 1
  40   23   24 ar
  41   23   39 1
  42   24   25 ar
  43   24   40 1

#	End of record

