#	Name: ASD07930671
#	Creating user name:	WinNT
#	Creation time:	15. 06. 2019 21:12

#	Modifying user name:	WinNT
#	Modification time:	15. 06. 2019 21:12

#	Program:	/corina/corina34_cracker 3.40 0067  02.08.2006

@<TRIPOS>MOLECULE
ASD07930671
  39   41    0    0    0
SMALL
NO_CHARGES


@<TRIPOS>ATOM
   1 C1            -0.0178     1.4608     0.0101 C.3     
   2 N2             0.8031    -0.4153    -2.1619 N.2     
   3 N3            -0.8796    -1.7833    -1.2911 N.pl3   
   4 C4            -0.9005    -2.8248    -0.2586 C.3     
   5 C5            -1.2102    -2.1834     1.1010 C.3     
   6 S6             0.0275    -0.8859     1.4156 S.o2    
   7 N7             0.0021    -0.0041     0.0020 N.am    
   8 C8             0.0002    -0.7257    -1.1832 C.2     
   9 C9             0.4646    -3.5132    -0.1997 C.3     
  10 O10           -0.4323     0.0192     2.4099 O.2     
  11 O11            1.3354    -1.4387     1.4687 O.2     
  12 C12           -1.9634    -3.8404    -0.5898 C.2     
  13 S13           -2.8645    -4.7802     0.5917 S.3     
  14 C14           -3.7654    -5.5873    -0.6849 C.2     
  15 C15           -3.3590    -5.1275    -1.8824 C.2     
  16 C16           -2.3631    -4.1546    -1.8194 C.2     
  17 C17           -3.9279    -5.6127    -3.1642 C.ar    
  18 C18           -3.4703    -5.1029    -4.3790 C.ar    
  19 C19           -4.9238    -6.5892    -3.1713 C.ar    
  20 C20           -5.4256    -7.0118    -4.4066 C.ar    
  21 C21           -4.9137    -6.4438    -5.5752 C.ar    
  22 N22           -3.9688    -5.5275    -5.5225 N.ar    
  23 C23           -6.4484    -8.0119    -4.4721 C.1     
  24 N24           -7.2597    -8.8053    -4.5241 N.1     
  25 H25            1.0048     1.8381     0.0023 H       
  26 H26           -0.5450     1.8219    -0.8730 H       
  27 H27           -0.5280     1.8123     0.9069 H       
  28 H28            0.7883    -0.9307    -2.9835 H       
  29 H29           -1.4804    -1.8399    -2.0505 H       
  30 H30           -2.2071    -1.7432     1.0811 H       
  31 H31           -1.1573    -2.9394     1.8845 H       
  32 H32            1.2322    -2.7780     0.0418 H       
  33 H33            0.4485    -4.2871     0.5677 H       
  34 H34            0.6857    -3.9650    -1.1667 H       
  35 H35           -4.5275    -6.3370    -0.5313 H       
  36 H36           -1.9421    -3.6962    -2.7020 H       
  37 H37           -2.6967    -4.3492    -4.3825 H       
  38 H38           -5.2970    -7.0077    -2.2483 H       
  39 H39           -5.2941    -6.7629    -6.5342 H       
@<TRIPOS>BOND
   1    1    7 1
   2    1   25 1
   3    1   26 1
   4    1   27 1
   5    2    8 2
   6    2   28 1
   7    3    4 1
   8    3    8 1
   9    3   29 1
  10    4    5 1
  11    4    9 1
  12    4   12 1
  13    5    6 1
  14    5   30 1
  15    5   31 1
  16    6    7 am
  17    6   10 2
  18    6   11 2
  19    7    8 1
  20    9   32 1
  21    9   33 1
  22    9   34 1
  23   12   13 1
  24   12   16 2
  25   13   14 1
  26   14   15 2
  27   14   35 1
  28   15   16 1
  29   15   17 1
  30   16   36 1
  31   17   18 ar
  32   17   19 ar
  33   18   22 ar
  34   18   37 1
  35   19   20 ar
  36   19   38 1
  37   20   21 ar
  38   20   23 1
  39   21   22 ar
  40   21   39 1
  41   23   24 3

#	End of record

