#	Name: ASD00170358
#	Creating user name:	WinNT
#	Creation time:	15. 06. 2019 18:32

#	Modifying user name:	WinNT
#	Modification time:	15. 06. 2019 18:32

#	Program:	/corina/corina34_cracker 3.40 0067  02.08.2006

@<TRIPOS>MOLECULE
ASD00170358
  42   44    0    0    0
SMALL
NO_CHARGES


@<TRIPOS>ATOM
   1 C1             0.1777     1.6862     0.1274 C.3     
   2 C2             3.6916    -0.1807     3.3158 C.ar    
   3 C3             3.6953     0.3673     4.5879 C.ar    
   4 C4             2.5039     0.7237     5.1979 C.ar    
   5 C5             1.3063     0.5345     4.5411 C.ar    
   6 C6             1.2962    -0.0174     3.2588 C.ar    
   7 C7             2.5002    -0.3746     2.6491 C.ar    
   8 Cl8            5.1991     0.6080     5.4213 Cl      
   9 C9             0.0893     0.1859     0.0174 C.2     
  10 C10            0.0136    -0.6943     1.1645 C.2     
  11 C11            0.0152    -0.2233     2.5493 C.2     
  12 O12           -1.0384    -0.0008     3.1179 O.2     
  13 C13            0.0672    -0.4601    -1.1380 C.2     
  14 S14           -0.0415    -2.1928    -0.8851 S.3     
  15 C15           -0.0605    -2.0216     0.8106 C.2     
  16 N16           -0.1393    -3.0697     1.7050 N.pl3   
  17 C17            0.1270     0.2040    -2.4894 C.3     
  18 C18            1.5870     0.3420    -2.9258 C.3     
  19 C19            1.6468     1.0061    -4.2772 C.ar    
  20 C20            1.7311     2.3829    -4.3676 C.ar    
  21 C21            1.7859     2.9921    -5.6073 C.ar    
  22 C22            1.7568     2.2244    -6.7565 C.ar    
  23 C23            1.6734     0.8476    -6.6661 C.ar    
  24 C24            1.6230     0.2381    -5.4264 C.ar    
  25 H25            1.2247     1.9860     0.1736 H       
  26 H26           -0.2928     2.1428    -0.7434 H       
  27 H27           -0.3346     2.0151     1.0315 H       
  28 H28            4.6240    -0.4525     2.8434 H       
  29 H29            2.5129     1.1502     6.1901 H       
  30 H30            0.3779     0.8125     5.0178 H       
  31 H31            2.4986    -0.8017     1.6571 H       
  32 H32           -0.2663    -3.9752     1.3811 H       
  33 H33           -0.0675    -2.9009     2.6575 H       
  34 H34           -0.4137    -0.4021    -3.2164 H       
  35 H35           -0.3291     1.1921    -2.4292 H       
  36 H36            2.1277     0.9480    -2.1988 H       
  37 H37            2.0431    -0.6462    -2.9860 H       
  38 H38            1.7538     2.9826    -3.4697 H       
  39 H39            1.8510     4.0678    -5.6779 H       
  40 H40            1.7989     2.7004    -7.7251 H       
  41 H41            1.6504     0.2478    -7.5640 H       
  42 H42            1.5616    -0.8378    -5.3556 H       
@<TRIPOS>BOND
   1    1    9 1
   2    1   25 1
   3    1   26 1
   4    1   27 1
   5    2    3 ar
   6    2    7 ar
   7    2   28 1
   8    3    4 ar
   9    3    8 1
  10    4    5 ar
  11    4   29 1
  12    5    6 ar
  13    5   30 1
  14    6    7 ar
  15    6   11 1
  16    7   31 1
  17    9   10 1
  18    9   13 2
  19   10   11 1
  20   10   15 2
  21   11   12 2
  22   13   14 1
  23   13   17 1
  24   14   15 1
  25   15   16 1
  26   16   32 1
  27   16   33 1
  28   17   18 1
  29   17   34 1
  30   17   35 1
  31   18   19 1
  32   18   36 1
  33   18   37 1
  34   19   20 ar
  35   19   24 ar
  36   20   21 ar
  37   20   38 1
  38   21   22 ar
  39   21   39 1
  40   22   23 ar
  41   22   40 1
  42   23   24 ar
  43   23   41 1
  44   24   42 1

#	End of record

