#	Name: ASD02560039
#	Creating user name:	WinNT
#	Creation time:	15. 06. 2019 20:24

#	Modifying user name:	WinNT
#	Modification time:	15. 06. 2019 20:24

#	Program:	/corina/corina34_cracker 3.40 0067  02.08.2006

@<TRIPOS>MOLECULE
ASD02560039
  44   46    0    0    0
SMALL
NO_CHARGES


@<TRIPOS>ATOM
   1 C1            -0.0167     1.3779     0.0096 C.ar    
   2 C2             0.0021    -0.0041     0.0020 C.ar    
   3 C3             1.2086    -0.6790    -0.0132 C.ar    
   4 C4             2.3961     0.0283    -0.0212 C.ar    
   5 C5             2.3773     1.4107    -0.0145 C.ar    
   6 C6             1.1711     2.0854     0.0021 C.ar    
   7 C7             1.1507     3.5923     0.0099 C.3     
   8 C8             3.7112    -0.7073    -0.0368 C.3     
   9 C9             4.1363    -0.9463    -1.4627 C.2     
  10 C10            4.9881    -0.0746    -2.0748 C.2     
  11 C11            5.3698    -0.3209    -3.4065 C.2     
  12 N12            4.8781    -1.4127    -4.0305 N.am    
  13 C13            4.0329    -2.2449    -3.3688 C.2     
  14 N14            3.6840    -2.0117    -2.1221 N.2     
  15 O15            3.5463    -3.3329    -4.0000 O.3     
  16 C16            2.6474    -4.1866    -3.2441 C.3     
  17 C17            1.6571    -4.8566    -4.1987 C.3     
  18 C18            0.7099    -5.7562    -3.4021 C.3     
  19 C19            1.5197    -6.8292    -2.6715 C.3     
  20 C20            2.5099    -6.1592    -1.7169 C.3     
  21 C21            3.4571    -5.2597    -2.5134 C.3     
  22 O22            6.1297     0.4374    -3.9861 O.2     
  23 H23           -0.9592     1.9051     0.0170 H       
  24 H24           -0.9258    -0.5567     0.0083 H       
  25 H25            1.2233    -1.7589    -0.0184 H       
  26 H26            3.3052     1.9634    -0.0201 H       
  27 H27            1.1345     3.9607    -1.0158 H       
  28 H28            0.2616     3.9409     0.5352 H       
  29 H29            2.0413     3.9651     0.5158 H       
  30 H30            4.4676    -0.1102     0.4726 H       
  31 H31            3.5986    -1.6637     0.4740 H       
  32 H32            5.3628     0.7898    -1.5468 H       
  33 H33            5.1275    -1.6019    -4.9486 H       
  34 H34            2.1012    -3.5856    -2.5170 H       
  35 H35            1.0803    -4.0922    -4.7192 H       
  36 H36            2.2033    -5.4576    -4.9257 H       
  37 H37            0.1638    -5.1552    -2.6750 H       
  38 H38            0.0044    -6.2335    -4.0822 H       
  39 H39            0.8449    -7.4701    -2.1040 H       
  40 H40            2.0658    -7.4302    -3.3985 H       
  41 H41            1.9638    -5.5582    -0.9898 H       
  42 H42            3.0868    -6.9237    -1.1963 H       
  43 H43            4.0033    -5.8606    -3.2405 H       
  44 H44            4.1626    -4.7823    -1.8334 H       
@<TRIPOS>BOND
   1    1    2 ar
   2    1    6 ar
   3    1   23 1
   4    2    3 ar
   5    2   24 1
   6    3    4 ar
   7    3   25 1
   8    4    5 ar
   9    4    8 1
  10    5    6 ar
  11    5   26 1
  12    6    7 1
  13    7   27 1
  14    7   28 1
  15    7   29 1
  16    8    9 1
  17    8   30 1
  18    8   31 1
  19    9   10 2
  20    9   14 1
  21   10   11 1
  22   10   32 1
  23   11   12 am
  24   11   22 2
  25   12   13 1
  26   12   33 1
  27   13   14 2
  28   13   15 1
  29   15   16 1
  30   16   17 1
  31   16   21 1
  32   16   34 1
  33   17   18 1
  34   17   35 1
  35   17   36 1
  36   18   19 1
  37   18   37 1
  38   18   38 1
  39   19   20 1
  40   19   39 1
  41   19   40 1
  42   20   21 1
  43   20   41 1
  44   20   42 1
  45   21   43 1
  46   21   44 1

#	End of record

