#	Name: ASD02560037
#	Creating user name:	WinNT
#	Creation time:	15. 06. 2019 20:24

#	Modifying user name:	WinNT
#	Modification time:	15. 06. 2019 20:24

#	Program:	/corina/corina34_cracker 3.40 0067  02.08.2006

@<TRIPOS>MOLECULE
ASD02560037
  34   35    0    0    0
SMALL
NO_CHARGES


@<TRIPOS>ATOM
   1 C1             0.4271     1.3974    -0.8948 C.ar    
   2 C2             0.4473     0.0163    -0.9178 C.ar    
   3 C3             1.2236    -0.6822     0.0062 C.ar    
   4 C4             1.9753     0.0190     0.9484 C.ar    
   5 C5             1.9469     1.4001     0.9612 C.ar    
   6 C6             1.1748     2.0873     0.0422 C.ar    
   7 Cl7            2.9445    -0.8418     2.1031 Cl      
   8 Cl8           -0.4923    -0.8478    -2.0943 Cl      
   9 C9             1.2494    -2.1653    -0.0128 C.2     
  10 N10            0.1639    -2.8884     0.0832 N.2     
  11 S11            0.5546    -4.3998     0.0284 S.3     
  12 N12            2.2271    -4.1853    -0.1298 N.2     
  13 C13            2.4302    -2.8915    -0.1400 C.2     
  14 O14            3.6589    -2.3210    -0.2540 O.3     
  15 C15            4.7201    -3.1501    -0.2558 C.2     
  16 N16            5.9566    -2.6615    -0.4767 N.am    
  17 C17            6.1611    -1.2165    -0.6053 C.3     
  18 O18            4.5629    -4.3387    -0.0583 O.2     
  19 C19            7.0962    -3.5753    -0.5882 C.3     
  20 C20            7.2767    -3.9895    -2.0500 C.3     
  21 C21            8.4669    -4.9438    -2.1665 C.3     
  22 H22           -0.1702     1.9397    -1.6128 H       
  23 H23            2.5286     1.9443     1.6905 H       
  24 H24            1.1558     3.1670     0.0562 H       
  25 H25            6.4486    -0.8028     0.3613 H       
  26 H26            6.9504    -1.0245    -1.3320 H       
  27 H27            5.2363    -0.7472    -0.9408 H       
  28 H28            7.9990    -3.0747    -0.2383 H       
  29 H29            6.9128    -4.4608     0.0203 H       
  30 H30            6.3739    -4.4901    -2.3999 H       
  31 H31            7.4602    -3.1039    -2.6585 H       
  32 H32            9.3696    -4.4432    -1.8166 H       
  33 H33            8.2834    -5.8294    -1.5579 H       
  34 H34            8.5954    -5.2389    -3.2079 H       
@<TRIPOS>BOND
   1    1    2 ar
   2    1    6 ar
   3    1   22 1
   4    2    3 ar
   5    2    8 1
   6    3    4 ar
   7    3    9 1
   8    4    5 ar
   9    4    7 1
  10    5    6 ar
  11    5   23 1
  12    6   24 1
  13    9   10 2
  14    9   13 1
  15   10   11 1
  16   11   12 1
  17   12   13 2
  18   13   14 1
  19   14   15 1
  20   15   16 am
  21   15   18 2
  22   16   17 1
  23   16   19 1
  24   17   25 1
  25   17   26 1
  26   17   27 1
  27   19   20 1
  28   19   28 1
  29   19   29 1
  30   20   21 1
  31   20   30 1
  32   20   31 1
  33   21   32 1
  34   21   33 1
  35   21   34 1

#	End of record

