#	Name: ASD01028005
#	Creating user name:	WinNT
#	Creation time:	15. 06. 2019 18:56

#	Modifying user name:	WinNT
#	Modification time:	15. 06. 2019 18:56

#	Program:	/corina/corina34_cracker 3.40 0067  02.08.2006

@<TRIPOS>MOLECULE
ASD01028005
  43   46    0    0    0
SMALL
NO_CHARGES


@<TRIPOS>ATOM
   1 C1             1.0924     0.6672     1.1974 C.ar    
   2 C2             0.5172    -0.3321     0.4405 C.ar    
   3 C3             1.7539     1.7123     0.5684 C.ar    
   4 C4             1.8336     1.7460    -0.8348 C.ar    
   5 C5             1.2424     0.7220    -1.5815 C.ar    
   6 C6             0.5961    -0.2992    -0.9444 C.ar    
   7 N7             2.4187     2.8371     1.0202 N.pl3   
   8 C8             2.8737     3.5088    -0.0830 C.2     
   9 N9             2.5264     2.8623    -1.1703 N.2     
  10 C10            3.6389     4.7709    -0.0532 C.2     
  11 C11            4.9957     4.7659     0.0709 C.2     
  12 C12            2.9569     6.0768    -0.1632 C.2     
  13 C13            3.8321     7.2381    -0.4153 C.ar    
  14 C14            5.2191     7.0660    -0.2598 C.ar    
  15 O15            5.7246     5.8785     0.1203 O.3     
  16 C16            3.3088     8.4721    -0.7982 C.ar    
  17 C17            4.1515     9.5223    -1.0304 C.ar    
  18 C18            5.5278     9.3626    -0.8865 C.ar    
  19 C19            6.0612     8.1434    -0.5037 C.ar    
  20 C20            3.5900    10.8582    -1.4442 C.3     
  21 C21            3.5328    11.7859    -0.2289 C.3     
  22 O22            6.3544    10.4126    -1.1241 O.3     
  23 O23            1.7484     6.1879    -0.0531 O.2     
  24 C24            2.6018     3.2360     2.4179 C.3     
  25 C25            5.7043     3.4386     0.1566 C.3     
  26 F26            4.7595     2.4102     0.2408 F       
  27 F27            6.4920     3.2559    -0.9850 F       
  28 F28            6.5191     3.4176     1.2937 F       
  29 H29            1.0244     0.6388     2.2749 H       
  30 H30            0.0021    -1.1460     0.9291 H       
  31 H31            1.2977     0.7378    -2.6599 H       
  32 H32            0.1412    -1.0884    -1.5246 H       
  33 H33            2.2420     8.5974    -0.9112 H       
  34 H34            7.1297     8.0305    -0.3948 H       
  35 H35            4.2291    11.2999    -2.2088 H       
  36 H36            2.5855    10.7218    -1.8448 H       
  37 H37            4.5373    11.9224     0.1716 H       
  38 H38            3.1267    12.7522    -0.5282 H       
  39 H39            2.8937    11.3442     0.5356 H       
  40 H40            6.5331    10.9567    -0.3449 H       
  41 H41            3.4767     2.7315     2.8281 H       
  42 H42            2.7461     4.3151     2.4718 H       
  43 H43            1.7190     2.9583     2.9936 H       
@<TRIPOS>BOND
   1    1    2 ar
   2    1    3 ar
   3    1   29 1
   4    2    6 ar
   5    2   30 1
   6    3    4 ar
   7    3    7 1
   8    4    5 ar
   9    4    9 1
  10    5    6 ar
  11    5   31 1
  12    6   32 1
  13    7    8 1
  14    7   24 1
  15    8    9 2
  16    8   10 1
  17   10   11 2
  18   10   12 1
  19   11   25 1
  20   11   15 1
  21   12   13 1
  22   12   23 2
  23   13   14 ar
  24   13   16 ar
  25   14   15 1
  26   14   19 ar
  27   16   17 ar
  28   16   33 1
  29   17   18 ar
  30   17   20 1
  31   18   19 ar
  32   18   22 1
  33   19   34 1
  34   20   21 1
  35   20   35 1
  36   20   36 1
  37   21   37 1
  38   21   38 1
  39   21   39 1
  40   22   40 1
  41   24   41 1
  42   24   42 1
  43   24   43 1
  44   25   26 1
  45   25   27 1
  46   25   28 1

#	End of record

