#	Name: ASD01913942
#	Creating user name:	WinNT
#	Creation time:	15. 06. 2019 20:02

#	Modifying user name:	WinNT
#	Modification time:	15. 06. 2019 20:02

#	Program:	/corina/corina34_cracker 3.40 0067  02.08.2006

@<TRIPOS>MOLECULE
ASD01913942
  40   42    0    0    0
SMALL
NO_CHARGES


@<TRIPOS>ATOM
   1 C1            -0.0169     1.4277     0.0166 C.ar    
   2 C2             0.0025    -0.0041     0.0087 C.1     
   3 C3             0.0184    -1.1780     0.0022 C.1     
   4 C4             0.0378    -2.6098    -0.0058 C.ar    
   5 N5            -1.0979    -3.2940     0.1342 N.ar    
   6 C6             0.1296    -5.2904    -0.0270 C.ar    
   7 N7             1.2615    -4.6122    -0.1728 N.ar    
   8 C8             1.2469    -3.2929    -0.1660 C.ar    
   9 C9            -1.0773    -4.6119     0.1266 C.ar    
  10 C10           -1.2245     2.1127     0.1767 C.ar    
  11 C11           -0.0545     4.1972     0.0319 C.ar    
  12 N12            0.1480    -6.6835    -0.0346 N.am    
  13 C13            1.1723     2.1469    -0.1299 C.ar    
  14 C14           -1.2354     3.4918     0.1833 C.ar    
  15 C15            1.1458     3.5258    -0.1213 C.ar    
  16 C16            0.0433    -7.3170    -1.2077 C.2     
  17 O17            0.0058    -8.6541    -1.3173 O.3     
  18 C18            0.4536    -9.4276    -0.1700 C.3     
  19 C19           -0.1947    -8.8337     1.0881 C.3     
  20 C20            0.2866    -7.3861     1.2383 C.3     
  21 C21            0.0252   -10.8874    -0.3319 C.3     
  22 C22            1.9770    -9.3452    -0.0541 C.3     
  23 O23           -0.0214    -6.6509    -2.2218 O.2     
  24 H24            2.1679    -2.7414    -0.2844 H       
  25 H25           -1.9972    -5.1663     0.2399 H       
  26 H26           -2.1469     1.5635     0.2947 H       
  27 H27           -0.0691     5.2771     0.0379 H       
  28 H28            2.1099     1.6242    -0.2492 H       
  29 H29           -2.1684     4.0226     0.3024 H       
  30 H30            2.0641     4.0829    -0.2345 H       
  31 H31           -1.2797    -8.8546     0.9868 H       
  32 H32            0.1041    -9.4115     1.9628 H       
  33 H33            1.3316    -7.3823     1.5483 H       
  34 H34           -0.3154    -6.8809     1.9936 H       
  35 H35            0.4686   -11.2977    -1.2392 H       
  36 H36            0.3628   -11.4629     0.5299 H       
  37 H37           -1.0612   -10.9415    -0.4020 H       
  38 H38            2.2760    -8.3047     0.0730 H       
  39 H39            2.3079    -9.9261     0.8068 H       
  40 H40            2.4325    -9.7461    -0.9596 H       
@<TRIPOS>BOND
   1    1    2 1
   2    1   13 ar
   3    1   10 ar
   4    2    3 3
   5    3    4 1
   6    4    5 ar
   7    4    8 ar
   8    5    9 ar
   9    6    7 ar
  10    6   12 1
  11    6    9 ar
  12    7    8 ar
  13    8   24 1
  14    9   25 1
  15   10   14 ar
  16   10   26 1
  17   11   14 ar
  18   11   15 ar
  19   11   27 1
  20   12   16 am
  21   12   20 1
  22   13   15 ar
  23   13   28 1
  24   14   29 1
  25   15   30 1
  26   16   17 1
  27   16   23 2
  28   17   18 1
  29   18   19 1
  30   18   21 1
  31   18   22 1
  32   19   20 1
  33   19   31 1
  34   19   32 1
  35   20   33 1
  36   20   34 1
  37   21   35 1
  38   21   36 1
  39   21   37 1
  40   22   38 1
  41   22   39 1
  42   22   40 1

#	End of record

