#	Name: ASD01411279
#	Creating user name:	WinNT
#	Creation time:	15. 06. 2019 19:19

#	Modifying user name:	WinNT
#	Modification time:	15. 06. 2019 19:19

#	Program:	/corina/corina34_cracker 3.40 0067  02.08.2006

@<TRIPOS>MOLECULE
ASD01411279
  72   76    0    0    0
SMALL
NO_CHARGES


@<TRIPOS>ATOM
   1 C1            -0.0170     1.4060     0.0098 C.ar    
   2 C2             0.0021    -0.0041     0.0020 C.ar    
   3 C3            -1.2006    -0.7228     0.0672 C.ar    
   4 C4            -2.3898    -0.0577     0.0846 C.ar    
   5 C5            -2.4178     1.3392     0.0364 C.ar    
   6 C6            -1.2301     2.0711     0.0198 C.ar    
   7 N7             1.2962     1.8378    -0.0004 N.pl3   
   8 C8             2.1196     0.7390    -0.0826 C.2     
   9 C9             1.3620    -0.3883    -0.0817 C.2     
  10 C10            1.7355     3.2308     0.0836 C.3     
  11 C11            1.1336     4.0343    -1.0410 C.2     
  12 N12            1.2221     5.4009    -0.9826 N.am    
  13 O13            0.5856     3.4857    -1.9735 O.2     
  14 C14            0.6290     6.1095    -2.1448 C.3     
  15 C15           -1.6870     6.9703    -1.9776 C.2     
  16 C16           -2.5461     6.7024    -1.0250 C.2     
  17 C17           -3.7014     2.0733    -0.0162 C.2     
  18 O18           -4.7751     1.5042     0.0240 O.2     
  19 N19           -3.6005     3.4432    -0.1132 N.am    
  20 C20           -3.9842     6.4158    -1.3660 C.3     
  21 N21           -4.6530     5.8827    -0.1457 N.am    
  22 S22           -5.0552     4.2563    -0.2170 S.o2    
  23 C23            3.5957     0.7788    -0.1596 C.ar    
  24 C24            4.2285     1.6805    -1.0166 C.ar    
  25 C25            1.8790    -1.8018    -0.1569 C.3     
  26 C26            1.4422    -2.5716     1.0912 C.3     
  27 C27            1.9671    -4.0067     1.0149 C.3     
  28 C28            1.4009    -4.6913    -0.2307 C.3     
  29 C29            1.8376    -3.9215    -1.4787 C.3     
  30 C30            1.3127    -2.4864    -1.4025 C.3     
  31 C31            5.6058     1.7130    -1.0842 C.ar    
  32 C32            6.3605     0.8532    -0.3039 C.ar    
  33 C33            5.7382    -0.0439     0.5480 C.ar    
  34 C34            4.3618    -0.0813     0.6287 C.ar    
  35 Cl35           8.0935     0.8999    -0.3943 Cl      
  36 O36           -5.5648     4.0179    -1.5218 O.2     
  37 O37           -5.7748     3.9605     0.9721 O.2     
  38 C38           -4.9368     6.7151     1.0260 C.3     
  39 C39           -0.2480     7.2506    -1.6243 C.3     
  40 H40           -1.1841    -1.8020     0.1033 H       
  41 H41           -3.3151    -0.6123     0.1354 H       
  42 H42           -1.2575     3.1507     0.0151 H       
  43 H43            1.4198     3.6522     1.0379 H       
  44 H44            2.8226     3.2714     0.0151 H       
  45 H45            1.6386     5.8677    -0.2413 H       
  46 H46            1.4239     6.5151    -2.7708 H       
  47 H47            0.0206     5.4157    -2.7250 H       
  48 H48           -2.0073     6.9897    -3.0074 H       
  49 H49           -2.2144     6.6953     0.0029 H       
  50 H50           -2.7462     3.9025    -0.1203 H       
  51 H51           -4.4771     7.3346    -1.6841 H       
  52 H52           -4.0326     5.6760    -2.1650 H       
  53 H53            3.6409     2.3513    -1.6259 H       
  54 H54            2.9674    -1.7881    -0.2129 H       
  55 H55            1.8456    -2.0839     1.9786 H       
  56 H56            0.3538    -2.5853     1.1472 H       
  57 H57            3.0556    -3.9930     0.9589 H       
  58 H58            1.6560    -4.5551     1.9040 H       
  59 H59            1.7749    -5.7137    -0.2850 H       
  60 H60            0.3124    -4.7051    -0.1746 H       
  61 H61            2.9261    -3.9078    -1.5348 H       
  62 H62            1.4342    -4.4093    -2.3662 H       
  63 H63            0.2243    -2.5002    -1.3464 H       
  64 H64            1.6239    -1.9380    -2.2916 H       
  65 H65            6.0965     2.4100    -1.7473 H       
  66 H66            6.3320    -0.7123     1.1539 H       
  67 H67            3.8776    -0.7812     1.2937 H       
  68 H68           -5.9237     7.1658     0.9210 H       
  69 H69           -4.9128     6.0982     1.9243 H       
  70 H70           -4.1851     7.5005     1.1044 H       
  71 H71           -0.1464     7.3233    -0.5415 H       
  72 H72            0.0638     8.1885    -2.0840 H       
@<TRIPOS>BOND
   1    1    2 ar
   2    1    7 1
   3    1    6 ar
   4    2    3 ar
   5    2    9 1
   6    3    4 ar
   7    3   40 1
   8    4    5 ar
   9    4   41 1
  10    5    6 ar
  11    5   17 1
  12    6   42 1
  13    7    8 1
  14    7   10 1
  15    8    9 2
  16    8   23 1
  17    9   25 1
  18   10   11 1
  19   10   43 1
  20   10   44 1
  21   11   12 am
  22   11   13 2
  23   12   14 1
  24   12   45 1
  25   14   39 1
  26   14   46 1
  27   14   47 1
  28   15   16 2
  29   15   39 1
  30   15   48 1
  31   16   20 1
  32   16   49 1
  33   17   18 2
  34   17   19 am
  35   19   22 am
  36   19   50 1
  37   20   21 1
  38   20   51 1
  39   20   52 1
  40   21   22 am
  41   21   38 1
  42   22   36 2
  43   22   37 2
  44   23   24 ar
  45   23   34 ar
  46   24   31 ar
  47   24   53 1
  48   25   26 1
  49   25   30 1
  50   25   54 1
  51   26   27 1
  52   26   55 1
  53   26   56 1
  54   27   28 1
  55   27   57 1
  56   27   58 1
  57   28   29 1
  58   28   59 1
  59   28   60 1
  60   29   30 1
  61   29   61 1
  62   29   62 1
  63   30   63 1
  64   30   64 1
  65   31   32 ar
  66   31   65 1
  67   32   33 ar
  68   32   35 1
  69   33   34 ar
  70   33   66 1
  71   34   67 1
  72   38   68 1
  73   38   69 1
  74   38   70 1
  75   39   71 1
  76   39   72 1

#	End of record

