#	Name: ASD01840242
#	Creating user name:	WinNT
#	Creation time:	15. 06. 2019 19:37

#	Modifying user name:	WinNT
#	Modification time:	15. 06. 2019 19:37

#	Program:	/corina/corina34_cracker 3.40 0067  02.08.2006

@<TRIPOS>MOLECULE
ASD01840242
  40   43    0    0    0
SMALL
NO_CHARGES


@<TRIPOS>ATOM
   1 C1             0.7407    -1.4911     0.8111 C.3     
   2 C2             0.2906    -2.8797     1.1856 C.2     
   3 N3             0.1919    -3.8580     0.3083 N.2     
   4 C4            -0.2039    -5.0047     0.7479 C.2     
   5 S5            -0.5018    -4.9206     2.4294 S.3     
   6 C6            -0.0356    -3.2214     2.4357 C.2     
   7 C7            -0.0115    -2.3131     3.6381 C.3     
   8 N8            -1.3150    -1.6605     3.7833 N.pl3   
   9 C9            -1.5359    -0.7643     4.8366 C.2     
  10 N10           -0.6614    -0.4247     5.7471 N.2     
  11 N11           -1.2514     0.4887     6.6249 N.pl3   
  12 C12           -0.6066     1.1120     7.7833 C.3     
  13 C13           -2.5529     0.6996     6.2054 C.2     
  14 C14           -2.7445    -0.0670     5.0922 C.2     
  15 S15           -4.3738     0.1299     4.4657 S.3     
  16 C16           -4.8119     1.2745     5.7258 C.ar    
  17 N17           -5.9665     1.9138     5.9361 N.ar    
  18 C18           -6.1318     2.7475     6.9374 C.ar    
  19 C19           -7.4606     3.4352     7.1173 C.3     
  20 C20           -5.1053     3.0048     7.8310 C.ar    
  21 C21           -3.8903     2.3740     7.6647 C.ar    
  22 C22           -2.7532     2.6321     8.6194 C.3     
  23 C23           -3.7360     1.4759     6.5882 C.ar    
  24 H24            1.8247    -1.4235     0.9023 H       
  25 H25            0.4488    -1.2797    -0.2176 H       
  26 H26            0.2740    -0.7658     1.4776 H       
  27 H27           -0.3289    -5.8896     0.1415 H       
  28 H28            0.2031    -2.8991     4.5318 H       
  29 H29            0.7613    -1.5558     3.5059 H       
  30 H30           -2.0251    -1.8492     3.1500 H       
  31 H31           -0.2487     2.1045     7.5095 H       
  32 H32           -1.3262     1.1971     8.5976 H       
  33 H33            0.2349     0.4982     8.1047 H       
  34 H34           -8.1021     2.8254     7.7534 H       
  35 H35           -7.3060     4.4083     7.5835 H       
  36 H36           -7.9349     3.5694     6.1451 H       
  37 H37           -5.2548     3.6930     8.6498 H       
  38 H38           -2.7158     1.8365     9.3635 H       
  39 H39           -1.8138     2.6576     8.0671 H       
  40 H40           -2.9076     3.5890     9.1180 H       
@<TRIPOS>BOND
   1    1    2 1
   2    1   24 1
   3    1   25 1
   4    1   26 1
   5    2    6 2
   6    2    3 1
   7    3    4 2
   8    4    5 1
   9    4   27 1
  10    5    6 1
  11    6    7 1
  12    7    8 1
  13    7   28 1
  14    7   29 1
  15    8    9 1
  16    8   30 1
  17    9   14 1
  18    9   10 2
  19   10   11 1
  20   11   12 1
  21   11   13 1
  22   12   31 1
  23   12   32 1
  24   12   33 1
  25   13   23 1
  26   13   14 2
  27   14   15 1
  28   15   16 1
  29   16   23 ar
  30   16   17 ar
  31   17   18 ar
  32   18   19 1
  33   18   20 ar
  34   19   34 1
  35   19   35 1
  36   19   36 1
  37   20   21 ar
  38   20   37 1
  39   21   22 1
  40   21   23 ar
  41   22   38 1
  42   22   39 1
  43   22   40 1

#	End of record

