#	Name: ASD04590928
#	Creating user name:	WinNT
#	Creation time:	15. 06. 2019 20:51

#	Modifying user name:	WinNT
#	Modification time:	15. 06. 2019 20:51

#	Program:	/corina/corina34_cracker 3.40 0067  02.08.2006

@<TRIPOS>MOLECULE
ASD04590928
  57   61    0    0    0
SMALL
NO_CHARGES


@<TRIPOS>ATOM
   1 N1            -0.0171     1.3232    -0.0119 N.ar    
   2 C2             0.0017    -0.0035    -0.0051 C.ar    
   3 N3             1.1298    -0.6949    -0.0118 N.ar    
   4 C4             2.3050    -0.0728    -0.0262 C.ar    
   5 C5             2.3189     1.3366    -0.0341 C.ar    
   6 C6             1.1072     2.0202    -0.0262 C.ar    
   7 N7             3.6031    -0.5195    -0.0358 N.pl3   
   8 C8             4.4823     0.5495    -0.0499 C.ar    
   9 C9             3.7312     1.7385    -0.0495 C.ar    
  10 C10            5.8680     0.6418    -0.0633 C.ar    
  11 N11            6.4613     1.8181    -0.0753 N.ar    
  12 C12            5.7850     2.9533    -0.0753 C.ar    
  13 C13            4.4063     2.9585    -0.0629 C.ar    
  14 N14           -1.2019    -0.6887     0.0098 N.pl3   
  15 C15           -2.4019     0.0120     0.1303 C.ar    
  16 N16           -2.3783     1.3196     0.3309 N.ar    
  17 C17           -3.4885     2.0229     0.4509 C.ar    
  18 C18           -4.7291     1.4087     0.3703 C.ar    
  19 C19           -4.7935     0.0321     0.1596 C.ar    
  20 C20           -3.6094    -0.6709     0.0326 C.ar    
  21 N21           -5.9023     2.1615     0.4995 N.3     
  22 C22            4.0018    -1.9292    -0.0312 C.3     
  23 C23           -6.6128     1.8207     1.7399 C.3     
  24 C24           -6.7744     1.9824    -0.6698 C.3     
  25 C25           -8.0054     2.8804    -0.5270 C.3     
  26 N26           -8.7160     2.5397     0.7134 N.3     
  27 C27           -7.8439     2.7188     1.8827 C.3     
  28 C28            4.1276    -2.4283    -1.4721 C.3     
  29 C29            4.5439    -3.9005    -1.4673 C.3     
  30 O30            4.6614    -4.3667    -2.8131 O.3     
  31 C31           -8.6083     2.3390     3.1525 C.3     
  32 H32            1.0848     3.1000    -0.0316 H       
  33 H33            6.4645    -0.2585    -0.0635 H       
  34 H34            6.3203     3.8912    -0.0851 H       
  35 H35            3.8596     3.8899    -0.0633 H       
  36 H36           -1.2103    -1.6559    -0.0635 H       
  37 H37           -3.4301     3.0889     0.6140 H       
  38 H38           -5.7459    -0.4729     0.0926 H       
  39 H39           -3.6221    -1.7382    -0.1317 H       
  40 H40            4.9616    -2.0337     0.4746 H       
  41 H41            3.2489    -2.5180     0.4928 H       
  42 H42           -6.9260     0.7773     1.7047 H       
  43 H43           -5.9505     1.9734     2.5920 H       
  44 H44           -6.2298     2.2529    -1.5744 H       
  45 H45           -7.0894     0.9408    -0.7323 H       
  46 H46           -7.6923     3.9239    -0.4918 H       
  47 H47           -8.6678     2.7278    -1.3791 H       
  48 H48           -9.5615     3.0823     0.8065 H       
  49 H49           -7.5289     3.7604     1.9452 H       
  50 H50            3.1677    -2.3238    -1.9779 H       
  51 H51            4.8804    -1.8395    -1.9961 H       
  52 H52            5.5038    -4.0050    -0.9615 H       
  53 H53            3.7910    -4.4893    -0.9433 H       
  54 H54            4.9230    -5.2947    -2.8864 H       
  55 H55           -8.9222     1.2971     3.0897 H       
  56 H56           -7.9612     2.4720     4.0195 H       
  57 H57           -9.4860     2.9775     3.2529 H       
@<TRIPOS>BOND
   1    1    2 ar
   2    1    6 ar
   3    2    3 ar
   4    2   14 1
   5    3    4 ar
   6    4    5 ar
   7    4    7 1
   8    5    6 ar
   9    5    9 1
  10    6   32 1
  11    7    8 1
  12    7   22 1
  13    8    9 ar
  14    8   10 ar
  15    9   13 ar
  16   10   11 ar
  17   10   33 1
  18   11   12 ar
  19   12   13 ar
  20   12   34 1
  21   13   35 1
  22   14   15 1
  23   14   36 1
  24   15   16 ar
  25   15   20 ar
  26   16   17 ar
  27   17   18 ar
  28   17   37 1
  29   18   19 ar
  30   18   21 1
  31   19   20 ar
  32   19   38 1
  33   20   39 1
  34   21   24 1
  35   21   23 1
  36   22   28 1
  37   22   40 1
  38   22   41 1
  39   23   27 1
  40   23   42 1
  41   23   43 1
  42   24   25 1
  43   24   44 1
  44   24   45 1
  45   25   26 1
  46   25   46 1
  47   25   47 1
  48   26   27 1
  49   26   48 1
  50   27   31 1
  51   27   49 1
  52   28   29 1
  53   28   50 1
  54   28   51 1
  55   29   30 1
  56   29   52 1
  57   29   53 1
  58   30   54 1
  59   31   55 1
  60   31   56 1
  61   31   57 1

#	End of record

