#	Name: ASD03490016
#	Creating user name:	WinNT
#	Creation time:	15. 06. 2019 20:42

#	Modifying user name:	WinNT
#	Modification time:	15. 06. 2019 20:42

#	Program:	/corina/corina34_cracker 3.40 0067  02.08.2006

@<TRIPOS>MOLECULE
ASD03490016
  43   46    0    0    0
SMALL
NO_CHARGES


@<TRIPOS>ATOM
   1 N1            -0.0011     1.3510     0.2362 N.pl3   
   2 C2             0.0273    -0.0220     0.1388 C.2     
   3 C3             1.3358    -0.3654    -0.1604 C.2     
   4 N4             2.0488     0.7688    -0.2355 N.2     
   5 C5             1.2657     1.7975    -0.0016 C.2     
   6 C6             1.6898     3.2138     0.0027 C.ar    
   7 C7             3.0201     3.5479    -0.2560 C.ar    
   8 C8             3.4094     4.8714    -0.2504 C.ar    
   9 C9             2.4844     5.8666     0.0112 C.ar    
  10 C10            1.1642     5.5422     0.2683 C.ar    
  11 C11            0.7606     4.2230     0.2597 C.ar    
  12 C12           -1.1095    -0.9445     0.3182 C.ar    
  13 C13            1.8548    -1.7387    -0.3610 C.ar    
  14 C14            1.1176    -2.6642    -1.0992 C.ar    
  15 C15            1.6052    -3.9414    -1.2835 C.ar    
  16 C16            2.8252    -4.3053    -0.7367 C.ar    
  17 C17            3.5611    -3.3894    -0.0020 C.ar    
  18 C18            3.0846    -2.1081     0.1830 C.ar    
  19 C19           -0.9922    -2.0843     1.1257 C.ar    
  20 C20           -2.0804    -2.9187     1.2649 C.ar    
  21 N21           -3.2192    -2.6564     0.6510 N.ar    
  22 C22           -3.3729    -1.5948    -0.1182 C.ar    
  23 C23           -2.3395    -0.7030    -0.3094 C.ar    
  24 F24            3.2987    -5.5573    -0.9199 F       
  25 S25            2.9902     7.5544     0.0175 S.o     
  26 C26            2.7434     8.0607    -1.7069 C.3     
  27 O27            2.0126     8.1780     0.8388 O.2     
  28 H28           -0.7773     1.8984     0.4329 H       
  29 H29            3.7432     2.7719    -0.4596 H       
  30 H30            4.4384     5.1312    -0.4504 H       
  31 H31            0.4472     6.3238     0.4718 H       
  32 H32           -0.2703     3.9711     0.4606 H       
  33 H33            0.1664    -2.3815    -1.5255 H       
  34 H34            1.0349    -4.6589    -1.8548 H       
  35 H35            4.5112    -3.6779     0.4229 H       
  36 H36            3.6590    -1.3948     0.7554 H       
  37 H37           -0.0635    -2.3054     1.6306 H       
  38 H38           -2.0001    -3.7996     1.8845 H       
  39 H39           -4.3232    -1.4201    -0.6009 H       
  40 H40           -2.4726     0.1637    -0.9399 H       
  41 H41            1.6939     7.9389    -1.9747 H       
  42 H42            3.0290     9.1062    -1.8230 H       
  43 H43            3.3591     7.4413    -2.3591 H       
@<TRIPOS>BOND
   1    1    2 1
   2    1    5 1
   3    1   28 1
   4    2    3 2
   5    2   12 1
   6    3    4 1
   7    3   13 1
   8    4    5 2
   9    5    6 1
  10    6    7 ar
  11    6   11 ar
  12    7    8 ar
  13    7   29 1
  14    8    9 ar
  15    8   30 1
  16    9   10 ar
  17    9   25 1
  18   10   11 ar
  19   10   31 1
  20   11   32 1
  21   12   19 ar
  22   12   23 ar
  23   13   14 ar
  24   13   18 ar
  25   14   15 ar
  26   14   33 1
  27   15   16 ar
  28   15   34 1
  29   16   17 ar
  30   16   24 1
  31   17   18 ar
  32   17   35 1
  33   18   36 1
  34   19   20 ar
  35   19   37 1
  36   20   21 ar
  37   20   38 1
  38   21   22 ar
  39   22   23 ar
  40   22   39 1
  41   23   40 1
  42   25   26 1
  43   25   27 2
  44   26   41 1
  45   26   42 1
  46   26   43 1

#	End of record

