#	Name: ASD00731056
#	Creating user name:	WinNT
#	Creation time:	15. 06. 2019 18:37

#	Modifying user name:	WinNT
#	Modification time:	15. 06. 2019 18:37

#	Program:	/corina/corina34_cracker 3.40 0067  02.08.2006

@<TRIPOS>MOLECULE
ASD00731056
 282  282    0    0    0
SMALL
NO_CHARGES


@<TRIPOS>ATOM
   1 C1            -1.5925     5.9252    -5.1666 C.2     
   2 O2            -1.2525     4.7622    -5.2184 O.2     
   3 N3             0.7604     6.4207    -5.4944 N.am    
   4 C4            -0.5641     7.0178    -5.3068 C.3     
   5 C5            -0.9070     7.8888    -6.5170 C.3     
   6 O6            -1.0249     7.0649    -7.6787 O.3     
   7 C7            -5.2396     5.7039    -5.2799 C.2     
   8 O8            -5.3535     6.8526    -5.6520 O.2     
   9 N9            -2.8908     6.2404    -4.9893 N.am    
  10 C10           -3.8913     5.1783    -4.8591 C.3     
  11 C11           -3.9566     4.7149    -3.4024 C.3     
  12 C12           -2.6261     4.0675    -3.0131 C.3     
  13 C13           -2.6904     3.6111    -1.5783 C.2     
  14 O14           -3.6971     3.7856    -0.9334 O.2     
  15 O15           -1.6292     3.0107    -1.0169 O.3     
  16 C16           -8.7135     4.6066    -4.9789 C.2     
  17 O17           -8.4303     3.6012    -4.3625 O.2     
  18 N18           -6.3188     4.8974    -5.2429 N.am    
  19 C19           -7.6294     5.4083    -5.6520 C.3     
  20 C20           -7.7730     5.2865    -7.1703 C.3     
  21 C21           -6.6827     6.1142    -7.8538 C.3     
  22 O22           -7.6409     3.9160    -7.5529 O.3     
  23 C23          -12.3379     4.3997    -5.2733 C.2     
  24 O24          -12.4222     5.3335    -6.0426 O.2     
  25 N25           -9.9978     5.0067    -5.0621 N.am    
  26 C26          -11.0631     4.1709    -4.5028 C.3     
  27 C27          -11.2820     4.5389    -3.0339 C.3     
  28 C28          -12.3374     3.6117    -2.4277 C.3     
  29 C29          -11.7877     2.1853    -2.3651 C.3     
  30 C30          -11.7608     5.9888    -2.9372 C.3     
  31 C31          -15.7816     3.1979    -5.0286 C.2     
  32 O32          -15.5526     2.5800    -4.0104 O.2     
  33 N33          -13.3843     3.5666    -5.1074 N.am    
  34 C34          -14.6504     3.8353    -5.7937 C.3     
  35 C35          -14.5982     3.2519    -7.2071 C.3     
  36 C36          -13.5321     3.9860    -8.0228 C.3     
  37 C37          -13.4806     3.4114    -9.4150 C.2     
  38 O38          -14.2236     2.5041    -9.7244 O.2     
  39 N39          -12.6090     3.9058   -10.3163 N.am    
  40 C40          -19.2960     2.4220    -5.6686 C.2     
  41 O41          -19.2052     2.7162    -6.8417 O.2     
  42 N42          -17.0476     3.3144    -5.4759 N.am    
  43 C43          -18.1472     2.6948    -4.7322 C.3     
  44 C44          -18.6082     3.6404    -3.6213 C.3     
  45 C45          -17.4975     3.8160    -2.6181 C.ar    
  46 C46          -16.5735     4.8314    -2.7821 C.ar    
  47 C47          -15.5541     4.9943    -1.8641 C.ar    
  48 C48          -15.4582     4.1382    -0.7766 C.ar    
  49 O49          -14.4566     4.2966     0.1281 O.3     
  50 C50          -16.3869     3.1204    -0.6140 C.ar    
  51 C51          -17.4074     2.9650    -1.5320 C.ar    
  52 C52          -22.8282     1.5432    -5.3297 C.2     
  53 O53          -22.8139     1.7171    -4.1295 O.2     
  54 N54          -20.4244     1.8511    -5.2024 N.am    
  55 C55          -21.5412     1.5859    -6.1127 C.3     
  56 C56          -21.3232     0.2412    -6.8093 C.3     
  57 C57          -20.0839     0.3247    -7.7026 C.3     
  58 C58          -19.8659    -1.0200    -8.3992 C.3     
  59 N59          -18.6793    -0.9401    -9.2547 N.pl3   
  60 C60          -18.2835    -2.0354    -9.9852 C.2     
  61 N61          -17.2277    -1.9643   -10.7463 N.2     
  62 N62          -19.0012    -3.2058    -9.9130 N.pl3   
  63 C63          -26.2564     0.4314    -5.9416 C.2     
  64 O64          -25.9605    -0.0812    -7.0002 O.2     
  65 N65          -23.9950     1.3117    -5.9632 N.am    
  66 C66          -25.2461     1.2702    -5.2021 C.3     
  67 C67          -25.7881     2.6910    -5.0339 C.3     
  68 C68          -24.8196     3.5081    -4.1764 C.3     
  69 C69          -25.3616     4.9290    -4.0082 C.3     
  70 C70          -24.3931     5.7461    -3.1507 C.3     
  71 N71          -24.9135     7.1103    -2.9892 N.3     
  72 C72          -29.8618    -0.1406    -5.7496 C.2     
  73 O73          -30.0174     0.7544    -4.9461 O.2     
  74 N74          -27.4887     0.2509    -5.4266 N.am    
  75 C75          -28.4709    -0.5644    -6.1455 C.3     
  76 C76          -28.2668    -2.0388    -5.7913 C.3     
  77 C77          -33.2389    -1.4917    -6.1142 C.2     
  78 O78          -32.8668    -2.4914    -6.6914 O.2     
  79 N79          -30.9329    -0.7562    -6.2885 N.am    
  80 C80          -32.2850    -0.3442    -5.9036 C.3     
  81 C81          -32.7199     0.8447    -6.7629 C.3     
  82 C82          -31.7689     2.0197    -6.5265 C.3     
  83 C83          -32.6823     0.4473    -8.2399 C.3     
  84 C84          -36.8272    -2.1033    -5.7779 C.2     
  85 O85          -37.0812    -0.9184    -5.7291 O.2     
  86 N86          -34.5054    -1.4072    -5.6611 N.am    
  87 C87          -35.3941    -2.5685    -5.7495 C.3     
  88 C88          -35.1751    -3.4719    -4.5343 C.3     
  89 C89          -33.7566    -4.0439    -4.5730 C.3     
  90 C90          -33.5376    -4.9474    -3.3578 C.3     
  91 C91          -32.1191    -5.5194    -3.3965 C.3     
  92 N92          -31.9089    -6.3868    -2.2298 N.3     
  93 C93          -40.1145    -3.6492    -5.3691 C.2     
  94 O94          -39.6355    -4.7051    -5.0133 O.2     
  95 N95          -37.8266    -3.0040    -5.8576 N.am    
  96 C96          -39.2198    -2.5518    -5.8852 C.3     
  97 C97          -39.6150    -2.2048    -7.3220 C.3     
  98 C98          -43.7020    -4.3513    -5.3688 C.2     
  99 O99          -43.9497    -3.4054    -6.0863 O.2     
 100 N100         -41.4468    -3.4572    -5.3030 N.am    
 101 C101         -42.3166    -4.5241    -4.8014 C.3     
 102 C102         -42.3787    -4.4556    -3.2742 C.3     
 103 C103         -40.9761    -4.6569    -2.6971 C.3     
 104 O104         -42.8794    -3.1782    -2.8746 O.3     
 105 C105         -46.7611    -4.1428    -4.5526 C.2     
 106 O106         -46.1888    -3.7444    -3.5658 O.2     
 107 N107         -44.6656    -5.2478    -5.0788 N.am    
 108 C108         -46.0380    -5.0228    -5.5394 C.3     
 109 C109         -46.7641    -6.3647    -5.6536 C.3     
 110 C110         -46.1044    -7.2102    -6.7448 C.3     
 111 C111         -46.7490    -8.5975    -6.7746 C.3     
 112 C112         -46.2949    -6.5301    -8.1021 C.3     
 113 O113         -48.0410    -3.8015    -4.7698 O.3     
 114 C114           1.8656     7.1102    -5.1487 C.2     
 115 O115           1.7636     8.2250    -4.6822 O.2     
 116 C116          20.4293     9.0164    -3.4330 C.3     
 117 C117          19.0460     9.6401    -3.2370 C.3     
 118 C118          17.9720     8.6564    -3.7057 C.3     
 119 C119          16.5887     9.2800    -3.5097 C.3     
 120 C120          15.5147     8.2963    -3.9784 C.3     
 121 C121          14.1314     8.9199    -3.7824 C.3     
 122 C122          13.0574     7.9362    -4.2510 C.3     
 123 C123          11.6741     8.5599    -4.0550 C.3     
 124 C124          10.6001     7.5761    -4.5237 C.3     
 125 C125           9.2168     8.1998    -4.3277 C.3     
 126 C126           8.1428     7.2160    -4.7964 C.3     
 127 C127           6.7595     7.8397    -4.6004 C.3     
 128 C128           5.6855     6.8560    -5.0691 C.3     
 129 C129           4.3022     7.4796    -4.8731 C.3     
 130 C130           3.2281     6.4959    -5.3417 C.3     
 131 H131           0.8420     5.5290    -5.8675 H       
 132 H132          -0.5615     7.6320    -4.4062 H       
 133 H133          -1.8515     8.4028    -6.3388 H       
 134 H134          -0.1169     8.6236    -6.6715 H       
 135 H135          -1.2416     7.5515    -8.4857 H       
 136 H136          -3.1627     7.1706    -4.9479 H       
 137 H137          -3.6141     4.3380    -5.4956 H       
 138 H138          -4.1463     5.5722    -2.7566 H       
 139 H139          -4.7613     3.9886    -3.2879 H       
 140 H140          -2.4364     3.2102    -3.6590 H       
 141 H141          -1.8214     4.7938    -3.1276 H       
 142 H142          -1.7179     2.7355    -0.0941 H       
 143 H143          -6.2277     3.9786    -4.9453 H       
 144 H144          -7.7181     6.4551    -5.3614 H       
 145 H145          -8.7529     5.6554    -7.4734 H       
 146 H146          -5.7066     5.6821    -7.6332 H       
 147 H147          -6.8462     6.1113    -8.9314 H       
 148 H148          -6.7186     7.1387    -7.4836 H       
 149 H149          -8.3011     3.3315    -7.1560 H       
 150 H150         -10.2168     5.8481    -5.4922 H       
 151 H151         -10.7778     3.1215    -4.5758 H       
 152 H152         -10.3449     4.4285    -2.4882 H       
 153 H153         -12.5839     3.9507    -1.4215 H       
 154 H154         -13.2345     3.6286    -3.0467 H       
 155 H155         -12.4980     1.5448    -1.8421 H       
 156 H156         -11.6363     1.8095    -3.3770 H       
 157 H157         -10.8373     2.1853    -1.8315 H       
 158 H158         -12.7414     6.0795    -3.4044 H       
 159 H159         -11.8294     6.2796    -1.8890 H       
 160 H160         -11.0527     6.6402    -3.4494 H       
 161 H161         -13.2991     2.7891    -4.5337 H       
 162 H162         -14.8115     4.9118    -5.8506 H       
 163 H163         -14.3491     2.1921    -7.1538 H       
 164 H164         -15.5697     3.3732    -7.6863 H       
 165 H165         -13.7812     5.0458    -8.0761 H       
 166 H166         -12.5606     3.8648    -7.5436 H       
 167 H167         -12.0148     4.6315   -10.0688 H       
 168 H168         -12.5759     3.5360   -11.2124 H       
 169 H169         -17.2307     3.8086    -6.2903 H       
 170 H170         -17.8060     1.7573    -4.2930 H       
 171 H171         -18.8656     4.6083    -4.0516 H       
 172 H172         -19.4826     3.2192    -3.1252 H       
 173 H173         -16.6485     5.4976    -3.6289 H       
 174 H174         -14.8322     5.7871    -1.9931 H       
 175 H175         -14.6792     4.8851     0.8623 H       
 176 H176         -16.3142     2.4525     0.2315 H       
 177 H177         -18.1332     2.1756    -1.4035 H       
 178 H178         -20.4970     1.6157    -4.2642 H       
 179 H179         -21.5967     2.3774    -6.8600 H       
 180 H180         -21.1791    -0.5371    -6.0598 H       
 181 H181         -22.1948     0.0021    -7.4185 H       
 182 H182         -20.2280     1.1029    -8.4521 H       
 183 H183         -19.2123     0.5638    -7.0934 H       
 184 H184         -19.7218    -1.7983    -7.6498 H       
 185 H185         -20.7375    -1.2592    -9.0084 H       
 186 H186         -18.1728    -0.1144    -9.3056 H       
 187 H187         -16.9484    -2.7372   -11.2617 H       
 188 H188         -19.7869    -3.2587    -9.3466 H       
 189 H189         -18.7220    -3.9786   -10.4284 H       
 190 H190         -24.0065     1.1725    -6.9231 H       
 191 H191         -25.0601     0.8337    -4.2208 H       
 192 H192         -25.8903     3.1592    -6.0129 H       
 193 H193         -26.7620     2.6530    -4.5459 H       
 194 H194         -24.7174     3.0399    -3.1974 H       
 195 H195         -23.8457     3.5462    -4.6644 H       
 196 H196         -25.4638     5.3971    -4.9872 H       
 197 H197         -26.3355     4.8909    -3.5202 H       
 198 H198         -24.2909     5.2779    -2.1717 H       
 199 H199         -23.4192     5.7841    -3.6387 H       
 200 H200         -24.2911     7.6704    -2.4261 H       
 201 H201         -25.0781     7.5430    -3.8857 H       
 202 H202         -27.7254     0.6609    -4.5799 H       
 203 H203         -28.3410    -0.4273    -7.2190 H       
 204 H204         -28.3967    -2.1760    -4.7178 H       
 205 H205         -28.9975    -2.6455    -6.3262 H       
 206 H206         -27.2607    -2.3454    -6.0777 H       
 207 H207         -30.8084    -1.4720    -6.9311 H       
 208 H208         -32.2914    -0.0546    -4.8528 H       
 209 H209         -33.7340     1.1377    -6.4911 H       
 210 H210         -30.7548     1.7267    -6.7982 H       
 211 H211         -32.0787     2.8667    -7.1387 H       
 212 H212         -31.7957     2.3028    -5.4743 H       
 213 H213         -31.6911     0.0684    -8.4891 H       
 214 H214         -33.4252    -0.3282    -8.4265 H       
 215 H215         -32.9038     1.3185    -8.8563 H       
 216 H216         -34.8284    -0.5774    -5.2764 H       
 217 H217         -35.1747    -3.1253    -6.6605 H       
 218 H218         -35.3080    -2.8915    -3.6213 H       
 219 H219         -35.8968    -4.2885    -4.5539 H       
 220 H220         -33.6237    -4.6244    -5.4860 H       
 221 H221         -33.0349    -3.2273    -4.5534 H       
 222 H222         -33.6705    -4.3669    -2.4449 H       
 223 H223         -34.2594    -5.7640    -3.3775 H       
 224 H224         -31.9862    -6.0998    -4.3095 H       
 225 H225         -31.3974    -4.7028    -3.3769 H       
 226 H226         -32.6064    -7.1148    -2.1901 H       
 227 H227         -30.9785    -6.7772    -2.2324 H       
 228 H228         -37.6234    -3.9517    -5.8966 H       
 229 H229         -39.3277    -1.6687    -5.2554 H       
 230 H230         -40.6515    -1.8684    -7.3425 H       
 231 H231         -38.9679    -1.4111    -7.6952 H       
 232 H232         -39.5071    -3.0879    -7.9518 H       
 233 H233         -41.8299    -2.6127    -5.5876 H       
 234 H234         -41.9174    -5.4916    -5.1057 H       
 235 H235         -43.0404    -5.2378    -2.9020 H       
 236 H236         -40.3410    -3.8192    -2.9852 H       
 237 H237         -41.0348    -4.7114    -1.6101 H       
 238 H238         -40.5532    -5.5836    -3.0850 H       
 239 H239         -43.7667    -2.9825    -3.2054 H       
 240 H240         -44.4504    -6.0420    -4.5652 H       
 241 H241         -46.0188    -4.5359    -6.5144 H       
 242 H242         -46.7061    -6.8914    -4.7011 H       
 243 H243         -47.8092    -6.1916    -5.9101 H       
 244 H244         -45.0395    -7.3088    -6.5342 H       
 245 H245         -47.8138    -8.4989    -6.9853 H       
 246 H246         -46.2790    -9.1999    -7.5521 H       
 247 H247         -46.6132    -9.0820    -5.8077 H       
 248 H248         -47.3598    -6.4315    -8.3127 H       
 249 H249         -45.8357    -5.5418    -8.0808 H       
 250 H250         -45.8250    -7.1325    -8.8795 H       
 251 H251         -48.4626    -3.2354    -4.1089 H       
 252 H252          21.1945     9.7173    -3.0991 H       
 253 H253          20.4994     8.0976    -2.8509 H       
 254 H254          20.5796     8.7902    -4.4887 H       
 255 H255          18.8958     9.8664    -2.1814 H       
 256 H256          18.9760    10.5590    -3.8191 H       
 257 H257          18.1223     8.4301    -4.7613 H       
 258 H258          18.0421     7.7375    -3.1236 H       
 259 H259          16.4384     9.5063    -2.4541 H       
 260 H260          16.5187    10.1989    -4.0918 H       
 261 H261          15.6650     8.0700    -5.0340 H       
 262 H262          15.5848     7.3774    -3.3963 H       
 263 H263          13.9811     9.1462    -2.7268 H       
 264 H264          14.0614     9.8388    -4.3645 H       
 265 H265          13.2077     7.7099    -5.3067 H       
 266 H266          13.1275     7.0173    -3.6689 H       
 267 H267          11.5238     8.7861    -2.9994 H       
 268 H268          11.6040     9.4788    -4.6371 H       
 269 H269          10.7504     7.3499    -5.5793 H       
 270 H270          10.6701     6.6572    -3.9416 H       
 271 H271           9.0665     8.4260    -3.2721 H       
 272 H272           9.1467     9.1187    -4.9098 H       
 273 H273           8.2931     6.9898    -5.8520 H       
 274 H274           8.2128     6.2972    -4.2143 H       
 275 H275           6.6092     8.0660    -3.5448 H       
 276 H276           6.6894     8.7586    -5.1825 H       
 277 H277           5.8357     6.6297    -6.1247 H       
 278 H278           5.7555     5.9371    -4.4870 H       
 279 H279           4.1519     7.7059    -3.8174 H       
 280 H280           4.2321     8.3985    -5.4551 H       
 281 H281           3.2982     5.5770    -4.7596 H       
 282 H282           3.3784     6.2696    -6.3973 H       
@<TRIPOS>BOND
   1    1    2 2
   2    1    4 1
   3    1    9 am
   4    3  114 am
   5    3    4 1
   6    3  131 1
   7    4    5 1
   8    4  132 1
   9    5    6 1
  10    5  133 1
  11    5  134 1
  12    6  135 1
  13    7    8 2
  14    7   10 1
  15    7   18 am
  16    9   10 1
  17    9  136 1
  18   10   11 1
  19   10  137 1
  20   11   12 1
  21   11  138 1
  22   11  139 1
  23   12   13 1
  24   12  140 1
  25   12  141 1
  26   13   14 2
  27   13   15 1
  28   15  142 1
  29   16   17 2
  30   16   19 1
  31   16   25 am
  32   18   19 1
  33   18  143 1
  34   19   20 1
  35   19  144 1
  36   20   21 1
  37   20   22 1
  38   20  145 1
  39   21  146 1
  40   21  147 1
  41   21  148 1
  42   22  149 1
  43   23   24 2
  44   23   26 1
  45   23   33 am
  46   25   26 1
  47   25  150 1
  48   26   27 1
  49   26  151 1
  50   27   28 1
  51   27   30 1
  52   27  152 1
  53   28   29 1
  54   28  153 1
  55   28  154 1
  56   29  155 1
  57   29  156 1
  58   29  157 1
  59   30  158 1
  60   30  159 1
  61   30  160 1
  62   31   32 2
  63   31   34 1
  64   31   42 am
  65   33   34 1
  66   33  161 1
  67   34   35 1
  68   34  162 1
  69   35   36 1
  70   35  163 1
  71   35  164 1
  72   36   37 1
  73   36  165 1
  74   36  166 1
  75   37   38 2
  76   37   39 am
  77   39  167 1
  78   39  168 1
  79   40   41 2
  80   40   43 1
  81   40   54 am
  82   42   43 1
  83   42  169 1
  84   43   44 1
  85   43  170 1
  86   44   45 1
  87   44  171 1
  88   44  172 1
  89   45   46 ar
  90   45   51 ar
  91   46   47 ar
  92   46  173 1
  93   47   48 ar
  94   47  174 1
  95   48   49 1
  96   48   50 ar
  97   49  175 1
  98   50   51 ar
  99   50  176 1
 100   51  177 1
 101   52   53 2
 102   52   55 1
 103   52   65 am
 104   54   55 1
 105   54  178 1
 106   55   56 1
 107   55  179 1
 108   56   57 1
 109   56  180 1
 110   56  181 1
 111   57   58 1
 112   57  182 1
 113   57  183 1
 114   58   59 1
 115   58  184 1
 116   58  185 1
 117   59   60 1
 118   59  186 1
 119   60   61 2
 120   60   62 1
 121   61  187 1
 122   62  188 1
 123   62  189 1
 124   63   64 2
 125   63   66 1
 126   63   74 am
 127   65   66 1
 128   65  190 1
 129   66   67 1
 130   66  191 1
 131   67   68 1
 132   67  192 1
 133   67  193 1
 134   68   69 1
 135   68  194 1
 136   68  195 1
 137   69   70 1
 138   69  196 1
 139   69  197 1
 140   70   71 1
 141   70  198 1
 142   70  199 1
 143   71  200 1
 144   71  201 1
 145   72   73 2
 146   72   75 1
 147   72   79 am
 148   74   75 1
 149   74  202 1
 150   75   76 1
 151   75  203 1
 152   76  204 1
 153   76  205 1
 154   76  206 1
 155   77   78 2
 156   77   80 1
 157   77   86 am
 158   79   80 1
 159   79  207 1
 160   80   81 1
 161   80  208 1
 162   81   82 1
 163   81   83 1
 164   81  209 1
 165   82  210 1
 166   82  211 1
 167   82  212 1
 168   83  213 1
 169   83  214 1
 170   83  215 1
 171   84   85 2
 172   84   87 1
 173   84   95 am
 174   86   87 1
 175   86  216 1
 176   87   88 1
 177   87  217 1
 178   88   89 1
 179   88  218 1
 180   88  219 1
 181   89   90 1
 182   89  220 1
 183   89  221 1
 184   90   91 1
 185   90  222 1
 186   90  223 1
 187   91   92 1
 188   91  224 1
 189   91  225 1
 190   92  226 1
 191   92  227 1
 192   93   94 2
 193   93   96 1
 194   93  100 am
 195   95   96 1
 196   95  228 1
 197   96   97 1
 198   96  229 1
 199   97  230 1
 200   97  231 1
 201   97  232 1
 202   98   99 2
 203   98  101 1
 204   98  107 am
 205  100  101 1
 206  100  233 1
 207  101  102 1
 208  101  234 1
 209  102  103 1
 210  102  104 1
 211  102  235 1
 212  103  236 1
 213  103  237 1
 214  103  238 1
 215  104  239 1
 216  105  106 2
 217  105  108 1
 218  105  113 1
 219  107  108 1
 220  107  240 1
 221  108  109 1
 222  108  241 1
 223  109  110 1
 224  109  242 1
 225  109  243 1
 226  110  111 1
 227  110  112 1
 228  110  244 1
 229  111  245 1
 230  111  246 1
 231  111  247 1
 232  112  248 1
 233  112  249 1
 234  112  250 1
 235  113  251 1
 236  114  115 2
 237  114  130 1
 238  116  117 1
 239  116  252 1
 240  116  253 1
 241  116  254 1
 242  117  118 1
 243  117  255 1
 244  117  256 1
 245  118  119 1
 246  118  257 1
 247  118  258 1
 248  119  120 1
 249  119  259 1
 250  119  260 1
 251  120  121 1
 252  120  261 1
 253  120  262 1
 254  121  122 1
 255  121  263 1
 256  121  264 1
 257  122  123 1
 258  122  265 1
 259  122  266 1
 260  123  124 1
 261  123  267 1
 262  123  268 1
 263  124  125 1
 264  124  269 1
 265  124  270 1
 266  125  126 1
 267  125  271 1
 268  125  272 1
 269  126  127 1
 270  126  273 1
 271  126  274 1
 272  127  128 1
 273  127  275 1
 274  127  276 1
 275  128  129 1
 276  128  277 1
 277  128  278 1
 278  129  130 1
 279  129  279 1
 280  129  280 1
 281  130  281 1
 282  130  282 1

#	End of record

