#	Name: ASD00069106
#	Creating user name:	WinNT
#	Creation time:	15. 06. 2019 18:29

#	Modifying user name:	WinNT
#	Modification time:	15. 06. 2019 18:29

#	Program:	/corina/corina34_cracker 3.40 0067  02.08.2006

@<TRIPOS>MOLECULE
ASD00069106
  49   51    0    0    0
SMALL
NO_CHARGES


@<TRIPOS>ATOM
   1 N1             0.0814     1.5080     0.0738 N.3     
   2 C2             0.1257     0.0403     0.0864 C.3     
   3 C3             0.7830    -0.4626    -1.2009 C.3     
   4 C4             2.2001     0.1086    -1.3014 C.3     
   5 C5             2.1295     1.6376    -1.2636 C.3     
   6 C6             1.4332     2.0796     0.0255 C.3     
   7 C7             3.0259    -0.3863    -0.1420 C.2     
   8 O8             3.2074     0.3275     0.8216 O.2     
   9 N9             3.5628    -1.6220    -0.1759 N.am    
  10 N10            2.8151    -0.3235    -2.5636 N.3     
  11 C11            4.1362     0.2933    -2.7437 C.3     
  12 C12           -0.6325     1.9986     1.1764 C.ar    
  13 C13           -2.0012     1.7530     1.2872 C.ar    
  14 C14           -2.7039     2.2396     2.3787 C.ar    
  15 C15           -2.0440     2.9696     3.3580 C.ar    
  16 C16           -0.6817     3.2124     3.2447 C.ar    
  17 C17            0.0224     2.7233     2.1601 C.ar    
  18 N18           -2.6641     1.0168     0.2977 N.am    
  19 C19           -3.6825     0.2005     0.6337 C.2     
  20 O20           -4.0767     0.1617     1.7837 O.2     
  21 C21           -4.3184    -0.6450    -0.3921 C.2     
  22 N22           -3.9857    -0.6949    -1.6645 N.2     
  23 C23           -4.7737    -1.5666    -2.2895 C.2     
  24 C24           -5.6366    -2.0887    -1.3837 C.2     
  25 N25           -5.3510    -1.5161    -0.1841 N.pl3   
  26 N26           -2.7529     3.4618     4.4602 N.pl3   
  27 H27            0.7043    -0.2983     0.9459 H       
  28 H28           -0.8886    -0.3531     0.1539 H       
  29 H29            0.8298    -1.5515    -1.1843 H       
  30 H30            0.1972    -0.1361    -2.0602 H       
  31 H31            3.1384     2.0493    -1.2918 H       
  32 H32            1.5649     1.9972    -2.1239 H       
  33 H33            1.3685     3.1675     0.0487 H       
  34 H34            2.0057     1.7315     0.8852 H       
  35 H35            3.4788    -2.1656    -0.9749 H       
  36 H36            4.0331    -1.9679     0.5988 H       
  37 H37            2.8764    -1.3295    -2.6102 H       
  38 H38            4.0431     1.3773    -2.6771 H       
  39 H39            4.8121    -0.0618    -1.9658 H       
  40 H40            4.5334     0.0222    -3.7218 H       
  41 H41           -3.7637     2.0513     2.4669 H       
  42 H42           -0.1703     3.7805     4.0076 H       
  43 H43            1.0829     2.9098     2.0768 H       
  44 H44           -2.3903     1.0942    -0.6296 H       
  45 H45           -4.7327    -1.8155    -3.3396 H       
  46 H46           -6.4034    -2.8242    -1.5776 H       
  47 H47           -5.7970    -1.6910     0.6593 H       
  48 H48           -3.7047     3.2927     4.5395 H       
  49 H49           -2.2922     3.9719     5.1446 H       
@<TRIPOS>BOND
   1    1    2 1
   2    1    6 1
   3    1   12 1
   4    2    3 1
   5    2   27 1
   6    2   28 1
   7    3    4 1
   8    3   29 1
   9    3   30 1
  10    4    5 1
  11    4    7 1
  12    4   10 1
  13    5    6 1
  14    5   31 1
  15    5   32 1
  16    6   33 1
  17    6   34 1
  18    7    8 2
  19    7    9 am
  20    9   35 1
  21    9   36 1
  22   10   11 1
  23   10   37 1
  24   11   38 1
  25   11   39 1
  26   11   40 1
  27   12   13 ar
  28   12   17 ar
  29   13   14 ar
  30   13   18 1
  31   14   15 ar
  32   14   41 1
  33   15   16 ar
  34   15   26 1
  35   16   17 ar
  36   16   42 1
  37   17   43 1
  38   18   19 am
  39   18   44 1
  40   19   20 2
  41   19   21 1
  42   21   22 2
  43   21   25 1
  44   22   23 1
  45   23   24 2
  46   23   45 1
  47   24   25 1
  48   24   46 1
  49   25   47 1
  50   26   48 1
  51   26   49 1

#	End of record

