#	Name: ASD07301011
#	Creating user name:	WinNT
#	Creation time:	15. 06. 2019 21:10

#	Modifying user name:	WinNT
#	Modification time:	15. 06. 2019 21:10

#	Program:	/corina/corina34_cracker 3.40 0067  02.08.2006

@<TRIPOS>MOLECULE
ASD07301011
  42   44    0    0    0
SMALL
NO_CHARGES


@<TRIPOS>ATOM
   1 C1            -0.0178     1.4647     0.0101 C.2     
   2 C2             0.0021    -0.0041     0.0020 C.2     
   3 C3             1.2763    -0.6365    -0.0135 C.2     
   4 C4             2.3780     0.1595    -0.0198 C.2     
   5 N5             2.2574     1.5097    -0.0114 N.pl3   
   6 N6             1.1280     2.1155     0.0026 N.2     
   7 O7            -1.0318    -0.6550     0.0088 O.2     
   8 O8             1.3883    -1.9914    -0.0215 O.3     
   9 C9             2.7106    -2.5330    -0.0370 C.3     
  10 C10           -1.3000     2.1994     0.0202 C.2     
  11 C11           -1.3046     3.6122     0.0279 C.2     
  12 C12           -2.4775     4.2843     0.0372 C.2     
  13 O13           -2.3532     1.5868     0.0219 O.2     
  14 N14           -2.4819     5.6497     0.0446 N.pl3   
  15 C15           -1.2155     6.3863     0.0426 C.3     
  16 C16           -3.7529     6.3781     0.0546 C.3     
  17 O17            4.7692     4.8565     2.0215 O.3     
  18 C18            3.7706     4.3282     2.9142 C.3     
  19 O19            2.8759     3.6135     2.0413 O.3     
  20 C20            3.6349     3.2361     0.9715 C.ar    
  21 C21            4.7983     3.9997     0.9591 C.ar    
  22 C22            3.4246     2.2807    -0.0184 C.ar    
  23 C23            4.3763     2.0937    -1.0135 C.ar    
  24 C24            5.5288     2.8542    -1.0198 C.ar    
  25 C25            5.7415     3.8045    -0.0373 C.ar    
  26 F26            4.3520     3.4575     3.8422 F       
  27 F27            3.0963     5.3657     3.5670 F       
  28 H28            3.3605    -0.2888    -0.0312 H       
  29 H29            2.6573    -3.6217    -0.0420 H       
  30 H30            3.2329    -2.1908    -0.9304 H       
  31 H31            3.2502    -2.1997     0.8494 H       
  32 H32           -0.3710     4.1552     0.0264 H       
  33 H33           -3.4110     3.7413     0.0387 H       
  34 H34           -0.9064     6.5746    -0.9856 H       
  35 H35           -1.3465     7.3355     0.5622 H       
  36 H36           -0.4516     5.7969     0.5496 H       
  37 H37           -4.0633     6.5532     1.0847 H       
  38 H38           -3.6281     7.3337    -0.4546 H       
  39 H39           -4.5131     5.7894    -0.4588 H       
  40 H40            4.2146     1.3527    -1.7823 H       
  41 H41            6.2668     2.7064    -1.7943 H       
  42 H42            6.6444     4.3969    -0.0477 H       
@<TRIPOS>BOND
   1    1    2 1
   2    1    6 2
   3    1   10 1
   4    2    3 1
   5    2    7 2
   6    3    4 2
   7    3    8 1
   8    4    5 1
   9    4   28 1
  10    5    6 1
  11    5   22 1
  12    8    9 1
  13    9   29 1
  14    9   30 1
  15    9   31 1
  16   10   11 1
  17   10   13 2
  18   11   12 2
  19   11   32 1
  20   12   14 1
  21   12   33 1
  22   14   15 1
  23   14   16 1
  24   15   34 1
  25   15   35 1
  26   15   36 1
  27   16   37 1
  28   16   38 1
  29   16   39 1
  30   17   18 1
  31   17   21 1
  32   18   19 1
  33   18   26 1
  34   18   27 1
  35   19   20 1
  36   20   21 ar
  37   20   22 ar
  38   21   25 ar
  39   22   23 ar
  40   23   24 ar
  41   23   40 1
  42   24   25 ar
  43   24   41 1
  44   25   42 1

#	End of record

