#	Name: ASD01900968
#	Creating user name:	WinNT
#	Creation time:	15. 06. 2019 19:52

#	Modifying user name:	WinNT
#	Modification time:	15. 06. 2019 19:52

#	Program:	/corina/corina34_cracker 3.40 0067  02.08.2006

@<TRIPOS>MOLECULE
ASD01900968
  59   63    0    0    0
SMALL
NO_CHARGES


@<TRIPOS>ATOM
   1 C1             0.4491     0.9318     0.1683 C.ar    
   2 C2             0.5583    -0.4400     0.0822 C.ar    
   3 C3             1.7758    -1.0309    -0.2249 C.ar    
   4 C4             2.8993    -0.2538    -0.4412 C.ar    
   5 C5             2.8070     1.1243    -0.3521 C.ar    
   6 C6             1.5711     1.7268    -0.0556 C.ar    
   7 N7             3.9126     1.9457    -0.5420 N.pl3   
   8 C8             3.7044     3.3053    -1.0530 C.3     
   9 N9             2.5615     3.9288    -0.3848 N.am    
  10 C10            1.5047     3.1962     0.0192 C.2     
  11 C11            2.5661     5.3112    -0.1607 C.ar    
  12 C12            3.3149     5.8436     0.8805 C.ar    
  13 C13            3.3192     7.2068     1.1006 C.ar    
  14 C14            2.5759     8.0444     0.2819 C.ar    
  15 C15            1.8272     7.5132    -0.7582 C.ar    
  16 C16            1.8264     6.1507    -0.9831 C.ar    
  17 O17            0.5044     3.7441     0.4417 O.2     
  18 O18            2.5807     9.3866     0.4992 O.3     
  19 C19            4.9625     4.1399    -0.7955 C.3     
  20 C20            3.4433     3.2447    -2.5607 C.3     
  21 C21            3.2952     4.6675    -3.1046 C.3     
  22 N22            4.5220     5.4272    -2.8324 N.3     
  23 C23            4.7703     5.5373    -1.3893 C.3     
  24 C24            4.4698     6.7541    -3.4604 C.3     
  25 C25            5.7117     7.5288    -3.1017 C.ar    
  26 C26            6.8191     7.4800    -3.9301 C.ar    
  27 C27            7.9631     8.1884    -3.6087 C.ar    
  28 C28            8.0069     8.9491    -2.4585 C.ar    
  29 C29            6.8932     9.0029    -1.6182 C.ar    
  30 C30            5.7399     8.2895    -1.9515 C.ar    
  31 C31            1.8826    10.1994    -0.4463 C.3     
  32 C32            6.9316     9.7904    -0.4228 C.1     
  33 Cl33           1.8897    -2.7595    -0.3378 Cl      
  34 N34            6.9620    10.4151     0.5255 N.1     
  35 H35           -0.5014     1.3874     0.4036 H       
  36 H36           -0.3096    -1.0589     0.2552 H       
  37 H37            3.8442    -0.7201    -0.6782 H       
  38 H38            4.8057     1.6258    -0.3398 H       
  39 H39            3.8934     5.1917     1.5182 H       
  40 H40            3.9013     7.6210     1.9106 H       
  41 H41            1.2485     8.1658    -1.3950 H       
  42 H42            1.2470     5.7377    -1.7956 H       
  43 H43            5.1323     4.2207     0.2781 H       
  44 H44            5.8206     3.6594    -1.2655 H       
  45 H45            4.2798     2.7511    -3.0554 H       
  46 H46            2.5267     2.6857    -2.7492 H       
  47 H47            3.1230     4.6290    -4.1803 H       
  48 H48            2.4503     5.1558    -2.6190 H       
  49 H49            3.9194     6.0217    -0.9102 H       
  50 H50            5.6688     6.1307    -1.2196 H       
  51 H51            4.4117     6.6417    -4.5430 H       
  52 H52            3.5909     7.2908    -3.1031 H       
  53 H53            6.7903     6.8858    -4.8315 H       
  54 H54            8.8239     8.1455    -4.2594 H       
  55 H55            8.9007     9.5014    -2.2086 H       
  56 H56            4.8735     8.3300    -1.3080 H       
  57 H57            1.8953    11.2371    -0.1128 H       
  58 H58            2.3688    10.1243    -1.4189 H       
  59 H59            0.8511     9.8568    -0.5283 H       
@<TRIPOS>BOND
   1    1    2 ar
   2    1    6 ar
   3    1   35 1
   4    2    3 ar
   5    2   36 1
   6    3    4 ar
   7    3   33 1
   8    4    5 ar
   9    4   37 1
  10    5    7 1
  11    5    6 ar
  12    6   10 1
  13    7    8 1
  14    7   38 1
  15    8    9 1
  16    8   20 1
  17    8   19 1
  18    9   10 am
  19    9   11 1
  20   10   17 2
  21   11   12 ar
  22   11   16 ar
  23   12   13 ar
  24   12   39 1
  25   13   14 ar
  26   13   40 1
  27   14   15 ar
  28   14   18 1
  29   15   16 ar
  30   15   41 1
  31   16   42 1
  32   18   31 1
  33   19   23 1
  34   19   43 1
  35   19   44 1
  36   20   21 1
  37   20   45 1
  38   20   46 1
  39   21   22 1
  40   21   47 1
  41   21   48 1
  42   22   23 1
  43   22   24 1
  44   23   49 1
  45   23   50 1
  46   24   25 1
  47   24   51 1
  48   24   52 1
  49   25   26 ar
  50   25   30 ar
  51   26   27 ar
  52   26   53 1
  53   27   28 ar
  54   27   54 1
  55   28   29 ar
  56   28   55 1
  57   29   30 ar
  58   29   32 1
  59   30   56 1
  60   31   57 1
  61   31   58 1
  62   31   59 1
  63   32   34 3

#	End of record

