#	Name: ASD06170191
#	Creating user name:	WinNT
#	Creation time:	15. 06. 2019 21:05

#	Modifying user name:	WinNT
#	Modification time:	15. 06. 2019 21:05

#	Program:	/corina/corina34_cracker 3.40 0067  02.08.2006

@<TRIPOS>MOLECULE
ASD06170191
  70   75    0    0    0
SMALL
NO_CHARGES


@<TRIPOS>ATOM
   1 C1            -0.0405     1.0240    -0.3710 C.2     
   2 C2             0.1985    -0.3700    -0.2669 C.2     
   3 C3             1.4946    -0.8488    -0.4348 C.2     
   4 C4             2.5264     0.0654    -0.7023 C.2     
   5 C5             2.2419     1.4103    -0.7936 C.2     
   6 N6             0.9762     1.8672    -0.6286 N.am    
   7 C7            -0.9080    -1.2971     0.0149 C.2     
   8 O8            -0.7402    -2.4968    -0.0980 O.2     
   9 N9            -2.1079    -0.8176     0.3983 N.am    
  10 C10            0.7224     3.2405    -0.7279 C.ar    
  11 C11            1.1292     4.0985     0.2855 C.ar    
  12 C12            0.8777     5.4527     0.1843 C.ar    
  13 C13            0.2216     5.9546    -0.9248 C.ar    
  14 C14           -0.1852     5.1029    -1.9354 C.ar    
  15 C15            0.0683     3.7484    -1.8428 C.ar    
  16 O16           -1.1707     1.4591    -0.2317 O.2     
  17 N17            5.6891    -1.4198    -1.6963 N.pl3   
  18 N18            6.0685    -0.7311    -0.5378 N.2     
  19 C19            5.0159    -0.1297    -0.0493 C.2     
  20 C20            3.9203    -0.4161    -0.8857 C.2     
  21 C21            4.3700    -1.2158    -1.8944 C.2     
  22 C22            6.5726    -2.2186    -2.5494 C.3     
  23 C23           -3.1945    -1.6879     0.5472 C.ar    
  24 C24           -4.4793    -1.2520     0.2500 C.ar    
  25 C25           -5.5514    -2.1119     0.3973 C.ar    
  26 C26           -5.3427    -3.4118     0.8426 C.ar    
  27 C27           -4.0597    -3.8457     1.1394 C.ar    
  28 C28           -2.9872    -2.9885     0.9865 C.ar    
  29 F29           -6.8016    -1.6888     0.1089 F       
  30 O30           -6.3972    -4.2582     0.9877 O.3     
  31 N31           -8.2271    -5.6431    -2.4393 N.ar    
  32 C32           -7.3014    -4.7158    -2.5139 C.ar    
  33 C33           -6.6634    -4.2248    -1.3819 C.ar    
  34 C34           -7.0034    -4.7181    -0.1345 C.ar    
  35 C35           -8.0012    -5.7163    -0.0662 C.ar    
  36 C36           -8.3994    -6.2644     1.1623 C.ar    
  37 C37           -9.3670    -7.2268     1.1907 C.ar    
  38 C38           -9.9664    -7.6732     0.0044 C.ar    
  39 C39           -9.5973    -7.1571    -1.2043 C.ar    
  40 C40           -8.6051    -6.1648    -1.2661 C.ar    
  41 O41          -10.9272    -8.6327     0.0585 O.3     
  42 C42          -11.5010    -9.0469    -1.1829 C.3     
  43 O43           -9.7530    -7.7582     2.3814 O.3     
  44 C44           -9.1045    -7.2620     3.5540 C.3     
  45 H45            1.7034    -1.9058    -0.3601 H       
  46 H46            3.0382     2.1102    -0.9995 H       
  47 H47           -2.2186     0.1304     0.5711 H       
  48 H48            1.6414     3.7071     1.1520 H       
  49 H49            1.1936     6.1204     0.9722 H       
  50 H50            0.0261     7.0140    -1.0016 H       
  51 H51           -0.6978     5.4979    -2.8001 H       
  52 H52           -0.2457     3.0843    -2.6345 H       
  53 H53            4.9910     0.4809     0.8412 H       
  54 H54            3.7777    -1.6136    -2.7052 H       
  55 H55            6.5824    -3.2501    -2.1973 H       
  56 H56            6.2100    -2.1887    -3.5769 H       
  57 H57            7.5828    -1.8111    -2.5086 H       
  58 H58           -4.6407    -0.2416    -0.0957 H       
  59 H59           -3.8982    -4.8558     1.4858 H       
  60 H60           -1.9876    -3.3288     1.2133 H       
  61 H61           -7.0278    -4.3238    -3.4824 H       
  62 H62           -5.9050    -3.4615    -1.4749 H       
  63 H63           -7.9424    -5.9269     2.0808 H       
  64 H64          -10.0668    -7.5107    -2.1104 H       
  65 H65          -11.9686    -8.1914    -1.6705 H       
  66 H66          -10.7201    -9.4504    -1.8275 H       
  67 H67          -12.2521    -9.8148    -0.9978 H       
  68 H68           -9.5047    -7.7684     4.4324 H       
  69 H69           -8.0330    -7.4493     3.4834 H       
  70 H70           -9.2810    -6.1899     3.6408 H       
@<TRIPOS>BOND
   1    1    2 1
   2    1    6 am
   3    1   16 2
   4    2    3 2
   5    2    7 1
   6    3    4 1
   7    3   45 1
   8    4    5 2
   9    4   20 1
  10    5    6 1
  11    5   46 1
  12    6   10 1
  13    7    8 2
  14    7    9 am
  15    9   23 1
  16    9   47 1
  17   10   11 ar
  18   10   15 ar
  19   11   12 ar
  20   11   48 1
  21   12   13 ar
  22   12   49 1
  23   13   14 ar
  24   13   50 1
  25   14   15 ar
  26   14   51 1
  27   15   52 1
  28   17   18 1
  29   17   21 1
  30   17   22 1
  31   18   19 2
  32   19   20 1
  33   19   53 1
  34   20   21 2
  35   21   54 1
  36   22   55 1
  37   22   56 1
  38   22   57 1
  39   23   24 ar
  40   23   28 ar
  41   24   25 ar
  42   24   58 1
  43   25   26 ar
  44   25   29 1
  45   26   27 ar
  46   26   30 1
  47   27   28 ar
  48   27   59 1
  49   28   60 1
  50   30   34 1
  51   31   32 ar
  52   31   40 ar
  53   32   33 ar
  54   32   61 1
  55   33   34 ar
  56   33   62 1
  57   34   35 ar
  58   35   36 ar
  59   35   40 ar
  60   36   37 ar
  61   36   63 1
  62   37   38 ar
  63   37   43 1
  64   38   39 ar
  65   38   41 1
  66   39   40 ar
  67   39   64 1
  68   41   42 1
  69   42   65 1
  70   42   66 1
  71   42   67 1
  72   43   44 1
  73   44   68 1
  74   44   69 1
  75   44   70 1

#	End of record

