#	Name: ASD01151100
#	Creating user name:	WinNT
#	Creation time:	15. 06. 2019 19:05

#	Modifying user name:	WinNT
#	Modification time:	15. 06. 2019 19:05

#	Program:	/corina/corina34_cracker 3.40 0067  02.08.2006

@<TRIPOS>MOLECULE
ASD01151100
  44   46    0    0    0
SMALL
NO_CHARGES


@<TRIPOS>ATOM
   1 C1            -0.0187     1.5258     0.0104 C.3     
   2 C2             0.0021    -0.0041     0.0020 C.3     
   3 C3             0.7421    -0.5109     1.2415 C.3     
   4 O4            -1.3386    -0.4987     0.0122 O.3     
   5 C5             0.7182    -0.4975    -1.2568 C.3     
   6 N6             0.0814     0.0846    -2.4408 N.am    
   7 C7            -0.9393    -0.5597    -3.0323 C.2     
   8 O8            -1.3094    -1.6183    -2.5629 O.2     
   9 N9            -1.5676    -0.0840    -4.1188 N.am    
  10 C10           -2.6720    -0.8494    -4.7023 C.3     
  11 C11           -3.9703    -0.4210    -4.0682 C.ar    
  12 C12           -4.4273    -1.0595    -2.9304 C.ar    
  13 C13           -5.6177    -0.6666    -2.3482 C.ar    
  14 C14           -6.3518     0.3655    -2.9042 C.ar    
  15 Br15          -7.9802     0.9039    -2.1078 Br      
  16 C16           -5.8941     1.0041    -4.0427 C.ar    
  17 C17           -4.7010     0.6140    -4.6212 C.ar    
  18 C18           -1.2018     1.0867    -4.6843 C.2     
  19 O19           -1.7773     1.5105    -5.6682 O.2     
  20 C20           -0.0882     1.8374    -4.0785 C.ar    
  21 C21            0.3475     3.0519    -4.6039 C.ar    
  22 C22            1.3960     3.7170    -3.9999 C.ar    
  23 F23            1.8238     4.8952    -4.5040 F       
  24 C24            2.0130     3.1813    -2.8762 C.ar    
  25 Cl25           3.3294     4.0321    -2.1298 Cl      
  26 C26            1.5879     1.9772    -2.3469 C.ar    
  27 C27            0.5341     1.2994    -2.9380 C.ar    
  28 H28            1.0039     1.9031     0.0027 H       
  29 H29           -0.5459     1.8868    -0.8726 H       
  30 H30           -0.5289     1.8773     0.9072 H       
  31 H31            0.2319    -0.1594     2.1383 H       
  32 H32            0.7568    -1.6008     1.2356 H       
  33 H33            1.7647    -0.1336     1.2338 H       
  34 H34           -1.4018    -1.4636     0.0076 H       
  35 H35            1.7648    -0.1951    -1.2215 H       
  36 H36            0.6556    -1.5845    -1.3079 H       
  37 H37           -2.7141    -0.6657    -5.7759 H       
  38 H38           -2.5128    -1.9125    -4.5216 H       
  39 H39           -3.8543    -1.8656    -2.4966 H       
  40 H40           -5.9749    -1.1657    -1.4595 H       
  41 H41           -6.4669     1.8100    -4.4771 H       
  42 H42           -4.3415     1.1153    -5.5077 H       
  43 H43           -0.1309     3.4698    -5.4773 H       
  44 H44            2.0732     1.5680    -1.4731 H       
@<TRIPOS>BOND
   1    1    2 1
   2    1   28 1
   3    1   29 1
   4    1   30 1
   5    2    3 1
   6    2    4 1
   7    2    5 1
   8    3   31 1
   9    3   32 1
  10    3   33 1
  11    4   34 1
  12    5    6 1
  13    5   35 1
  14    5   36 1
  15    6   27 1
  16    6    7 am
  17    7    8 2
  18    7    9 am
  19    9   10 1
  20    9   18 am
  21   10   11 1
  22   10   37 1
  23   10   38 1
  24   11   17 ar
  25   11   12 ar
  26   12   13 ar
  27   12   39 1
  28   13   14 ar
  29   13   40 1
  30   14   15 1
  31   14   16 ar
  32   16   17 ar
  33   16   41 1
  34   17   42 1
  35   18   19 2
  36   18   20 1
  37   20   27 ar
  38   20   21 ar
  39   21   22 ar
  40   21   43 1
  41   22   23 1
  42   22   24 ar
  43   24   25 1
  44   24   26 ar
  45   26   27 ar
  46   26   44 1

#	End of record

