#	Name: ASD00311279
#	Creating user name:	WinNT
#	Creation time:	15. 06. 2019 18:34

#	Modifying user name:	WinNT
#	Modification time:	15. 06. 2019 18:34

#	Program:	/corina/corina34_cracker 3.40 0067  02.08.2006

@<TRIPOS>MOLECULE
ASD00311279
  40   43    0    0    0
SMALL
NO_CHARGES


@<TRIPOS>ATOM
   1 C1            -0.0167     1.3778     0.0096 C.2     
   2 C2             0.0021    -0.0041     0.0020 C.2     
   3 C3             1.2589    -0.6767    -0.0136 C.2     
   4 C4             2.4316     0.0673    -0.0208 C.2     
   5 C5             2.3574     1.4753    -0.0126 C.2     
   6 N6             1.1648     2.0904     0.0022 N.am    
   7 C7            -1.3431    -0.5750     0.0123 C.2     
   8 C8            -2.3224     0.3257     0.0268 C.2     
   9 S9            -1.6794     1.9560     0.0358 S.3     
  10 O10            3.3822     2.1374    -0.0188 O.2     
  11 C11            3.7477    -0.6119    -0.0366 C.ar    
  12 C12            4.5935    -0.4744    -1.1371 C.ar    
  13 C13            5.8183    -1.1097    -1.1459 C.ar    
  14 C14            6.2081    -1.8817    -0.0660 C.ar    
  15 C15            5.3736    -2.0218     1.0285 C.ar    
  16 C16            4.1488    -1.3869     1.0515 C.ar    
  17 C17           -1.5955    -2.0355     0.0070 C.ar    
  18 C18           -2.4693    -2.5981     0.9365 C.ar    
  19 C19           -2.7004    -3.9585     0.9266 C.ar    
  20 C20           -2.0670    -4.7637    -0.0030 C.ar    
  21 C21           -1.1986    -4.2113    -0.9273 C.ar    
  22 C22           -0.9644    -2.8514    -0.9312 C.ar    
  23 C23           -2.3236    -6.2487    -0.0083 C.3     
  24 O24           -3.4302    -6.5378    -0.8650 O.3     
  25 O25            1.3089    -2.0291    -0.0209 O.3     
  26 H26            1.1326     3.0598     0.0073 H       
  27 H27           -3.3749     0.0839     0.0360 H       
  28 H28            4.2901     0.1277    -1.9808 H       
  29 H29            6.4739    -1.0043    -1.9976 H       
  30 H30            7.1676    -2.3772    -0.0777 H       
  31 H31            5.6834    -2.6258     1.8685 H       
  32 H32            3.5000    -1.4934     1.9084 H       
  33 H33           -2.9641    -1.9705     1.6629 H       
  34 H34           -3.3767    -4.3955     1.6463 H       
  35 H35           -0.7067    -4.8449    -1.6505 H       
  36 H36           -0.2900    -2.4205    -1.6564 H       
  37 H37           -1.4374    -6.7693    -0.3714 H       
  38 H38           -2.5513    -6.5818     1.0042 H       
  39 H39           -3.6525    -7.4775    -0.9169 H       
  40 H40            2.2062    -2.3895    -0.0315 H       
@<TRIPOS>BOND
   1    1    2 2
   2    1    6 1
   3    1    9 1
   4    2    3 1
   5    2    7 1
   6    3    4 2
   7    3   25 1
   8    4    5 1
   9    4   11 1
  10    5    6 am
  11    5   10 2
  12    6   26 1
  13    7    8 2
  14    7   17 1
  15    8    9 1
  16    8   27 1
  17   11   12 ar
  18   11   16 ar
  19   12   13 ar
  20   12   28 1
  21   13   14 ar
  22   13   29 1
  23   14   15 ar
  24   14   30 1
  25   15   16 ar
  26   15   31 1
  27   16   32 1
  28   17   18 ar
  29   17   22 ar
  30   18   19 ar
  31   18   33 1
  32   19   20 ar
  33   19   34 1
  34   20   21 ar
  35   20   23 1
  36   21   22 ar
  37   21   35 1
  38   22   36 1
  39   23   24 1
  40   23   37 1
  41   23   38 1
  42   24   39 1
  43   25   40 1

#	End of record

