#	Name: ASD06350031
#	Creating user name:	WinNT
#	Creation time:	15. 06. 2019 21:06

#	Modifying user name:	WinNT
#	Modification time:	15. 06. 2019 21:06

#	Program:	/corina/corina34_cracker 3.40 0067  02.08.2006

@<TRIPOS>MOLECULE
ASD06350031
  23   24    0    0    0
SMALL
NO_CHARGES


@<TRIPOS>ATOM
   1 Cl1           -2.6402     4.0447     5.0023 Cl      
   2 C2            -1.8892     4.5935     3.5365 C.ar    
   3 N3            -0.7976     5.3300     3.6116 N.ar    
   4 C4            -0.1945     5.7685     2.5162 C.ar    
   5 C5            -0.7226     5.4455     1.2807 C.ar    
   6 C6            -1.8775     4.6654     1.2371 C.ar    
   7 N7            -2.4227     4.2583     2.3776 N.ar    
   8 O8            -2.4323     4.3236     0.0489 O.3     
   9 C9            -3.4995     3.4816     0.0615 C.ar    
  10 C10           -3.3099     2.1175    -0.0982 C.ar    
  11 C11           -4.3964     1.2632    -0.0846 C.ar    
  12 C12           -5.6720     1.7667     0.0880 C.ar    
  13 C13           -5.8658     3.1267     0.2477 C.ar    
  14 C14           -4.7821     3.9858     0.2403 C.ar    
  15 F15           -4.9709     5.3144     0.3967 F       
  16 N16           -6.8330     0.8486     0.1015 N.pl3   
  17 O17           -6.6637    -0.3493    -0.0394 O.2     
  18 O18           -7.9575     1.2910     0.2536 O.2     
  19 H19            0.6988     6.3712     2.5881 H       
  20 H20           -0.2526     5.7892     0.3712 H       
  21 H21           -2.3138     1.7227    -0.2336 H       
  22 H22           -4.2484     0.2007    -0.2094 H       
  23 H23           -6.8635     3.5176     0.3821 H       
@<TRIPOS>BOND
   1    1    2 1
   2    2    3 ar
   3    2    7 ar
   4    3    4 ar
   5    4    5 ar
   6    4   19 1
   7    5    6 ar
   8    5   20 1
   9    6    7 ar
  10    6    8 1
  11    8    9 1
  12    9   10 ar
  13    9   14 ar
  14   10   11 ar
  15   10   21 1
  16   11   12 ar
  17   11   22 1
  18   12   13 ar
  19   12   16 1
  20   13   14 ar
  21   13   23 1
  22   14   15 1
  23   16   17 2
  24   16   18 2

#	End of record

