#	Name: ASD05872011
#	Creating user name:	WinNT
#	Creation time:	15. 06. 2019 21:04

#	Modifying user name:	WinNT
#	Modification time:	15. 06. 2019 21:04

#	Program:	/corina/corina34_cracker 3.40 0067  02.08.2006

@<TRIPOS>MOLECULE
ASD05872011
  32   33    0    0    0
SMALL
NO_CHARGES


@<TRIPOS>ATOM
   1 C1            -0.0168     1.3909     0.0097 C.ar    
   2 C2             0.0021    -0.0041     0.0020 C.ar    
   3 C3            -1.1845    -0.7121     0.0095 C.ar    
   4 C4            -2.3952    -0.0265     0.0248 C.ar    
   5 C5            -2.4171     1.3754     0.0325 C.ar    
   6 C6            -1.2170     2.0760     0.0306 C.ar    
   7 C7            -3.8128    -0.4423     0.0361 C.2     
   8 C8            -4.5353     0.7114     0.0492 C.2     
   9 O9            -3.7097     1.7643     0.0470 O.3     
  10 C10           -6.0401     0.7908     0.0644 C.3     
  11 O11            1.1546     2.0819     0.0022 O.3     
  12 C12            1.0667     3.5081     0.0107 C.3     
  13 O13            1.1896    -0.6677    -0.0133 O.3     
  14 S14            1.7437    -0.9771     1.3700 S.o2    
  15 O15            3.1397    -1.3444     1.1901 O.co2   
  16 O16            1.5955     0.2341     2.1618 O.co2   
  17 O17            0.9541    -2.0770     1.9018 O.co2   
  18 C18           -4.3345    -1.8156     0.0337 C.2     
  19 O19           -4.5403    -2.3895     1.0855 O.2     
  20 O20           -4.5850    -2.4395    -1.1349 O.3     
  21 C21           -5.0991    -3.7954    -1.0613 C.3     
  22 H22           -1.1722    -1.7920     0.0033 H       
  23 H23           -1.2222     3.1560     0.0365 H       
  24 H24           -6.3928     0.8047     1.0957 H       
  25 H25           -6.3611     1.7014    -0.4416 H       
  26 H26           -6.4550    -0.0761    -0.4498 H       
  27 H27            0.5230     3.8439    -0.8723 H       
  28 H28            0.5400     3.8343     0.9075 H       
  29 H29            2.0700     3.9341     0.0034 H       
  30 H30           -4.3814    -4.4283    -0.5394 H       
  31 H31           -6.0453    -3.7964    -0.5201 H       
  32 H32           -5.2567    -4.1795    -2.0691 H       
@<TRIPOS>BOND
   1    1    2 ar
   2    1   11 1
   3    1    6 ar
   4    2    3 ar
   5    2   13 1
   6    3    4 ar
   7    3   22 1
   8    4    5 ar
   9    4    7 1
  10    5    6 ar
  11    5    9 1
  12    6   23 1
  13    7    8 2
  14    7   18 1
  15    8    9 1
  16    8   10 1
  17   10   24 1
  18   10   25 1
  19   10   26 1
  20   11   12 1
  21   12   27 1
  22   12   28 1
  23   12   29 1
  24   13   14 1
  25   14   15 ar
  26   14   16 ar
  27   14   17 ar
  28   18   19 2
  29   18   20 1
  30   20   21 1
  31   21   30 1
  32   21   31 1
  33   21   32 1

#	End of record

