#	Name: ASD02198218
#	Creating user name:	WinNT
#	Creation time:	15. 06. 2019 20:19

#	Modifying user name:	WinNT
#	Modification time:	15. 06. 2019 20:19

#	Program:	/corina/corina34_cracker 3.40 0067  02.08.2006

@<TRIPOS>MOLECULE
ASD02198218
  45   48    0    0    0
SMALL
NO_CHARGES


@<TRIPOS>ATOM
   1 C1            -0.0166     1.3753     0.0096 C.2     
   2 C2             0.0021    -0.0041     0.0020 C.2     
   3 C3            -1.1878    -0.8008     0.0091 C.1     
   4 S4             1.5675     2.0054    -0.0021 S.3     
   5 C5             2.2772     0.3990    -0.0175 C.2     
   6 C6             1.2824    -0.5520    -0.0132 C.2     
   7 C7             3.6579     0.1249    -0.0329 C.2     
   8 C8             4.6307     1.2351    -0.0365 C.2     
   9 O9             4.0505    -1.0301    -0.0433 O.2     
  10 N10            1.5294    -1.9154    -0.0228 N.pl3   
  11 N11           -1.1593     2.1393     0.0194 N.pl3   
  12 N12           -2.1317    -1.4328     0.0147 N.1     
  13 C13           -1.0630     3.6011     0.0268 C.3     
  14 C14           -2.4477     4.1956     0.0369 C.ar    
  15 C15            5.9935     1.1304    -0.0508 C.2     
  16 C16            6.4372     2.4802    -0.0486 C.2     
  17 O17            4.3522     2.5521    -0.0324 O.3     
  18 N18            5.3580     3.2224    -0.0341 N.2     
  19 C19            7.8438     2.9548    -0.0601 C.ar    
  20 C20            8.1209     4.3201    -0.0562 C.ar    
  21 C21            8.8914     2.0365    -0.0689 C.ar    
  22 C22           10.1973     2.4832    -0.0795 C.ar    
  23 C23           10.4668     3.8399    -0.0810 C.ar    
  24 C24            9.4305     4.7560    -0.0669 C.ar    
  25 C25           -3.0766     4.4617     1.2383 C.ar    
  26 C26           -3.0864     4.4802    -1.1559 C.ar    
  27 C27           -4.3561     5.0263    -1.1475 C.ar    
  28 C28           -4.9883     5.2880     0.0536 C.ar    
  29 C29           -4.3479     5.0081     1.2474 C.ar    
  30 Cl30          -5.1414     5.3358     2.7562 Cl      
  31 H31            2.4424    -2.2428    -0.0333 H       
  32 H32            0.7893    -2.5424    -0.0191 H       
  33 H33           -2.0294     1.7105     0.0213 H       
  34 H34           -0.5220     3.9250     0.9159 H       
  35 H35           -0.5308     3.9347    -0.8640 H       
  36 H36            6.5928     0.2319    -0.0612 H       
  37 H37            7.3125     5.0362    -0.0452 H       
  38 H38            8.6821     0.9770    -0.0671 H       
  39 H39           11.0102     1.7722    -0.0864 H       
  40 H40           11.4901     4.1852    -0.0886 H       
  41 H41            9.6464     5.8142    -0.0681 H       
  42 H42           -2.5761     4.2429     2.1700 H       
  43 H43           -2.5929     4.2759    -2.0946 H       
  44 H44           -4.8542     5.2490    -2.0796 H       
  45 H45           -5.9803     5.7151     0.0601 H       
@<TRIPOS>BOND
   1    1    2 2
   2    1    4 1
   3    1   11 1
   4    2    3 1
   5    2    6 1
   6    3   12 3
   7    4    5 1
   8    5    6 2
   9    5    7 1
  10    6   10 1
  11    7    8 1
  12    7    9 2
  13    8   15 2
  14    8   17 1
  15   10   31 1
  16   10   32 1
  17   11   13 1
  18   11   33 1
  19   13   14 1
  20   13   34 1
  21   13   35 1
  22   14   25 ar
  23   14   26 ar
  24   15   16 1
  25   15   36 1
  26   16   19 1
  27   16   18 2
  28   17   18 1
  29   19   20 ar
  30   19   21 ar
  31   20   24 ar
  32   20   37 1
  33   21   22 ar
  34   21   38 1
  35   22   23 ar
  36   22   39 1
  37   23   24 ar
  38   23   40 1
  39   24   41 1
  40   25   29 ar
  41   25   42 1
  42   26   27 ar
  43   26   43 1
  44   27   28 ar
  45   27   44 1
  46   28   29 ar
  47   28   45 1
  48   29   30 1

#	End of record

