#	Name: ASD06300001
#	Creating user name:	WinNT
#	Creation time:	15. 06. 2019 21:05

#	Modifying user name:	WinNT
#	Modification time:	15. 06. 2019 21:05

#	Program:	/corina/corina34_cracker 3.40 0067  02.08.2006

@<TRIPOS>MOLECULE
ASD06300001
 201  203    0    0    0
SMALL
NO_CHARGES


@<TRIPOS>ATOM
   1 N1            -2.7418     0.4504     1.5311 N.am    
   2 C2            11.5809   -22.8698    -1.1485 C.3     
   3 C3            12.2351   -22.6484     0.2167 C.3     
   4 C4            11.2490   -21.9871     1.1449 C.2     
   5 N5            12.6439   -23.9386     0.7773 N.am    
   6 O6            10.9201   -22.5393     2.1735 O.2     
   7 N7            12.9563   -24.1796    -4.4285 N.pl3   
   8 C8            12.5969   -24.4592    -5.7258 C.2     
   9 N9            11.3729   -24.2506    -6.1223 N.2     
  10 N10           13.5285   -24.9589    -6.6047 N.pl3   
  11 C11           12.6177   -23.4258    -2.1267 C.3     
  12 C12           11.9635   -23.6472    -3.4919 C.3     
  13 C13           17.2993   -27.8509    -1.2581 C.3     
  14 C14           17.4634   -27.7431     0.2593 C.3     
  15 C15           16.1564   -27.3175     0.8770 C.2     
  16 N16           17.8586   -29.0455     0.8014 N.am    
  17 O17           15.6274   -28.0142     1.7171 O.2     
  18 C18           18.6627   -28.1116    -1.9013 C.3     
  19 C19           16.3507   -29.0051    -1.5877 C.3     
  20 C20           14.9364   -28.6516    -1.1232 C.3     
  21 C21           14.2540   -25.8013     1.0152 C.3     
  22 C22           13.8334   -24.4741     0.4385 C.2     
  23 N23           15.5753   -26.1628     0.4959 N.am    
  24 O24           14.5653   -23.8878    -0.3306 O.2     
  25 C25           19.1636   -29.3383     0.9679 C.2     
  26 N26           20.9569   -30.9883     1.0024 N.am    
  27 C27           19.5749   -30.7148     1.4230 C.3     
  28 C28           19.5416   -30.7899     2.9640 C.3     
  29 C29           20.7835   -31.6585     3.2966 C.3     
  30 C30           21.7831   -31.2029     2.2044 C.3     
  31 O31           20.0069   -28.4939     0.7516 O.2     
  32 C32            5.8286   -18.4584     0.3613 C.3     
  33 C33            7.0380   -17.6318     0.8027 C.3     
  34 C34            6.5743   -16.4783     1.6545 C.2     
  35 N35            7.9498   -18.4762     1.5785 N.am    
  36 O36            6.6968   -16.5271     2.8601 O.2     
  37 C37            4.9588   -17.6258    -0.5826 C.3     
  38 C38            5.7049   -17.4023    -1.8996 C.3     
  39 C39            3.6496   -18.3682    -0.8578 C.3     
  40 C40           10.5312   -19.3700     2.8187 C.3     
  41 C41            9.7740   -20.1394     1.7344 C.3     
  42 C42            8.9097   -19.1848     0.9517 C.2     
  43 N43           10.7326   -20.7822     0.8321 N.am    
  44 O44            9.0778   -19.0542    -0.2423 O.2     
  45 C45           11.3116   -20.3544     3.6919 C.3     
  46 C46           12.1660   -19.5786     4.6965 C.3     
  47 C47           10.3315   -21.2561     4.4451 C.3     
  48 C48            5.6902   -14.2199     1.8890 C.3     
  49 C49            4.5895   -13.4398     1.2175 C.2     
  50 N50            6.0234   -15.3925     1.0765 N.am    
  51 O51            4.1288   -13.8254     0.1639 O.2     
  52 C52            8.9112   -14.8551     2.1532 C.ar    
  53 C53            9.8816   -15.5316     2.8685 C.ar    
  54 C54            9.9263   -15.4234     4.2459 C.ar    
  55 C55            9.0010   -14.6383     4.9079 C.ar    
  56 C56            8.0303   -13.9622     4.1927 C.ar    
  57 C57            7.9856   -14.0704     2.8153 C.ar    
  58 C58            6.9280   -13.3325     2.0355 C.3     
  59 C59            1.6913   -12.1468     1.5254 C.3     
  60 C60            3.0472   -11.5552     1.1348 C.3     
  61 C61            3.1122   -10.1151     1.5739 C.2     
  62 N62            4.1172   -12.3136     1.7876 N.am    
  63 O63            3.9681    -9.7574     2.3552 O.2     
  64 N64            0.1103   -15.5208     0.8310 N.pl3   
  65 C65           -1.0289   -16.2566     1.0568 C.2     
  66 N66           -1.1269   -17.4675     0.5846 N.2     
  67 N67           -2.0647   -15.7152     1.7808 N.pl3   
  68 C68            1.5763   -13.5682     0.9711 C.3     
  69 C69            0.2204   -14.1597     1.3617 C.3     
  70 C70            3.2828    -7.0687     0.6483 C.3     
  71 C71            2.2825    -7.8246     1.5252 C.3     
  72 C72            0.9197    -7.1959     1.3890 C.2     
  73 N73            2.2193    -9.2246     1.0983 N.am    
  74 O74           -0.0126    -7.8526     0.9761 O.2     
  75 C75            4.6883    -7.6266     0.8808 C.3     
  76 C76            5.6736    -6.8821     0.0171 C.2     
  77 O77            5.2894    -5.9928    -0.7126 O.2     
  78 N78            6.9817    -7.2045     0.0556 N.am    
  79 C79           -0.5879    -5.2926     1.5938 C.3     
  80 C80           -0.4391    -3.8025     1.4256 C.2     
  81 N81            0.7369    -5.9038     1.7262 N.am    
  82 O82            0.6648    -3.3004     1.4172 O.2     
  83 C83           -0.7725    -7.8752     3.6296 C.ar    
  84 C84           -1.0048    -9.2347     3.7231 C.ar    
  85 C85           -2.1297    -9.7855     3.1382 C.ar    
  86 C86           -3.0225    -8.9768     2.4601 C.ar    
  87 C87           -2.7899    -7.6174     2.3661 C.ar    
  88 C88           -1.6650    -7.0666     2.9511 C.ar    
  89 C89           -1.4120    -5.5844     2.8495 C.3     
  90 C90           -1.1477    -1.2538    -0.3544 C.3     
  91 C91           -1.3883    -1.5790     1.1212 C.3     
  92 C92           -2.6460    -0.8928     1.5883 C.2     
  93 N93           -1.5329    -3.0277     1.2846 N.am    
  94 O94           -3.5720    -1.5491     2.0156 O.2     
  95 S95            0.3662    -2.0799    -0.9166 S.3     
  96 O96           20.6443   -30.7610    -1.1822 O.2     
  97 C97           21.3947   -31.0400    -0.2712 C.2     
  98 C98           22.8167   -31.4445    -0.5633 C.3     
  99 H99           -2.0012     0.9753     1.1893 H       
 100 H100          -3.5529     0.8919     1.8280 H       
 101 H101          10.7598   -23.5794    -1.0472 H       
 102 H102          11.1974   -21.9217    -1.5257 H       
 103 H103          13.1101   -22.0089     0.1009 H       
 104 H104          12.0585   -24.4075     1.3924 H       
 105 H105          13.8671   -24.3349    -4.1334 H       
 106 H106          11.1193   -24.4479    -7.0376 H       
 107 H107          14.4394   -25.1141    -6.3096 H       
 108 H108          13.2750   -25.1561    -7.5199 H       
 109 H109          13.4388   -22.7162    -2.2280 H       
 110 H110          13.0012   -24.3738    -1.7495 H       
 111 H111          11.5800   -22.6992    -3.8691 H       
 112 H112          11.1424   -24.3568    -3.3906 H       
 113 H113          16.8867   -26.9195    -1.6459 H       
 114 H114          18.2317   -27.0052     0.4902 H       
 115 H115          17.1810   -29.6972     1.0405 H       
 116 H116          19.1049   -29.0073    -1.4651 H       
 117 H117          18.5368   -28.2543    -2.9746 H       
 118 H118          19.3178   -27.2590    -1.7226 H       
 119 H119          16.3473   -29.1765    -2.6642 H       
 120 H120          16.6858   -29.9080    -1.0771 H       
 121 H121          14.8999   -28.6568    -0.0338 H       
 122 H122          14.6703   -27.6606    -1.4910 H       
 123 H123          14.2316   -29.3855    -1.5139 H       
 124 H124          14.2983   -25.7277     2.1018 H       
 125 H125          13.5307   -26.5661     0.7320 H       
 126 H126          16.0320   -25.5709    -0.1223 H       
 127 H127          18.9036   -31.4614     0.9985 H       
 128 H128          19.6380   -29.7959     3.4008 H       
 129 H129          18.6281   -31.2759     3.3068 H       
 130 H130          21.1633   -31.4320     4.2928 H       
 131 H131          20.5553   -32.7199     3.1991 H       
 132 H132          22.5249   -31.9803     2.0210 H       
 133 H133          22.2709   -30.2741     2.5002 H       
 134 H134           6.1704   -19.3550    -0.1556 H       
 135 H135           5.2447   -18.7439     1.2364 H       
 136 H136           7.5567   -17.2489    -0.0762 H       
 137 H137           7.8626   -18.5252     2.5434 H       
 138 H138           4.7403   -16.6629    -0.1209 H       
 139 H139           5.0520   -16.8872    -2.6042 H       
 140 H140           6.5919   -16.7960    -1.7163 H       
 141 H141           6.0022   -18.3645    -2.3165 H       
 142 H142           3.1181   -18.5274     0.0804 H       
 143 H143           3.0299   -17.7750    -1.5303 H       
 144 H144           3.8681   -19.3311    -1.3195 H       
 145 H145          11.2242   -18.6706     2.3511 H       
 146 H146           9.8215   -18.8199     3.4365 H       
 147 H147           9.1466   -20.8998     2.1994 H       
 148 H148          10.9956   -20.3406     0.0095 H       
 149 H149          11.9573   -20.9661     3.0618 H       
 150 H150          11.5203   -18.9669     5.3266 H       
 151 H151          12.7220   -20.2800     5.3186 H       
 152 H152          12.8643   -18.9363     4.1599 H       
 153 H153           9.7228   -21.8088     3.7294 H       
 154 H154          10.8875   -21.9574     5.0672 H       
 155 H155           9.6858   -20.6444     5.0752 H       
 156 H156           5.3566   -14.5438     2.8749 H       
 157 H157           5.8475   -15.3875     0.1226 H       
 158 H158           8.8790   -14.9361     1.0767 H       
 159 H159          10.6045   -16.1449     2.3512 H       
 160 H160          10.6840   -15.9525     4.8048 H       
 161 H161           9.0355   -14.5544     5.9841 H       
 162 H162           7.3072   -13.3491     4.7100 H       
 163 H163           7.3140   -13.0814     1.0475 H       
 164 H164           6.6589   -12.4179     2.5638 H       
 165 H165           1.6055   -12.1724     2.6117 H       
 166 H166           0.8932   -11.5300     1.1123 H       
 167 H167           3.1700   -11.6112     0.0532 H       
 168 H168           4.4857   -12.0052     2.6302 H       
 169 H169           0.8411   -15.9028     0.3202 H       
 170 H170          -1.9306   -17.9866     0.7440 H       
 171 H171          -1.9917   -14.8140     2.1322 H       
 172 H172          -2.8684   -16.2343     1.9402 H       
 173 H173           1.6622   -13.5426    -0.1152 H       
 174 H174           2.3744   -14.1850     1.3842 H       
 175 H175          -0.5777   -13.5429     0.9486 H       
 176 H176           0.1346   -14.1853     2.4480 H       
 177 H177           3.0120    -7.1915    -0.4004 H       
 178 H178           3.2648    -6.0099     0.9066 H       
 179 H179           2.6026    -7.7762     2.5660 H       
 180 H180           1.5348    -9.5107     0.4734 H       
 181 H181           4.9591    -7.5038     1.9295 H       
 182 H182           4.7063    -8.6854     0.6226 H       
 183 H183           7.2889    -7.9157     0.6392 H       
 184 H184           7.6158    -6.7253    -0.5004 H       
 185 H185          -1.0942    -5.7079     0.7224 H       
 186 H186           1.4825    -5.3786     2.0564 H       
 187 H187           0.1041    -7.4442     4.0904 H       
 188 H188          -0.3073    -9.8665     4.2529 H       
 189 H189          -2.3108   -10.8477     3.2107 H       
 190 H190          -3.9009    -9.4072     2.0025 H       
 191 H191          -3.4872    -6.9856     1.8360 H       
 192 H192          -0.8642    -5.2482     3.7298 H       
 193 H193          -2.3638    -5.0566     2.7902 H       
 194 H194          -1.9937    -1.6035    -0.9461 H       
 195 H195          -1.0401    -0.1760    -0.4760 H       
 196 H196          -0.5423    -1.2293     1.7129 H       
 197 H197          -2.4159    -3.4292     1.2914 H       
 198 H198           0.4506    -1.7112    -2.2073 H       
 199 H199          23.3339   -31.6557     0.3726 H       
 200 H200          22.8194   -32.3368    -1.1893 H       
 201 H201          23.3254   -30.6335    -1.0845 H       
@<TRIPOS>BOND
   1    1   92 am
   2    1   99 1
   3    1  100 1
   4    2   11 1
   5    2    3 1
   6    2  101 1
   7    2  102 1
   8    3    5 1
   9    3    4 1
  10    3  103 1
  11    4    6 2
  12    4   43 am
  13    5   22 am
  14    5  104 1
  15    7   12 1
  16    7    8 1
  17    7  105 1
  18    8    9 2
  19    8   10 1
  20    9  106 1
  21   10  107 1
  22   10  108 1
  23   11   12 1
  24   11  109 1
  25   11  110 1
  26   12  111 1
  27   12  112 1
  28   13   14 1
  29   13   18 1
  30   13   19 1
  31   13  113 1
  32   14   16 1
  33   14   15 1
  34   14  114 1
  35   15   17 2
  36   15   23 am
  37   16   25 am
  38   16  115 1
  39   18  116 1
  40   18  117 1
  41   18  118 1
  42   19   20 1
  43   19  119 1
  44   19  120 1
  45   20  121 1
  46   20  122 1
  47   20  123 1
  48   21   22 1
  49   21   23 1
  50   21  124 1
  51   21  125 1
  52   22   24 2
  53   23  126 1
  54   25   31 2
  55   25   27 1
  56   26   30 1
  57   26   27 1
  58   26   97 am
  59   27   28 1
  60   27  127 1
  61   28   29 1
  62   28  128 1
  63   28  129 1
  64   29   30 1
  65   29  130 1
  66   29  131 1
  67   30  132 1
  68   30  133 1
  69   32   37 1
  70   32   33 1
  71   32  134 1
  72   32  135 1
  73   33   35 1
  74   33   34 1
  75   33  136 1
  76   34   36 2
  77   34   50 am
  78   35   42 am
  79   35  137 1
  80   37   38 1
  81   37   39 1
  82   37  138 1
  83   38  139 1
  84   38  140 1
  85   38  141 1
  86   39  142 1
  87   39  143 1
  88   39  144 1
  89   40   45 1
  90   40   41 1
  91   40  145 1
  92   40  146 1
  93   41   43 1
  94   41   42 1
  95   41  147 1
  96   42   44 2
  97   43  148 1
  98   45   46 1
  99   45   47 1
 100   45  149 1
 101   46  150 1
 102   46  151 1
 103   46  152 1
 104   47  153 1
 105   47  154 1
 106   47  155 1
 107   48   49 1
 108   48   50 1
 109   48   58 1
 110   48  156 1
 111   49   51 2
 112   49   62 am
 113   50  157 1
 114   52   53 ar
 115   52   57 ar
 116   52  158 1
 117   53   54 ar
 118   53  159 1
 119   54   55 ar
 120   54  160 1
 121   55   56 ar
 122   55  161 1
 123   56   57 ar
 124   56  162 1
 125   57   58 1
 126   58  163 1
 127   58  164 1
 128   59   68 1
 129   59   60 1
 130   59  165 1
 131   59  166 1
 132   60   62 1
 133   60   61 1
 134   60  167 1
 135   61   63 2
 136   61   73 am
 137   62  168 1
 138   64   69 1
 139   64   65 1
 140   64  169 1
 141   65   66 2
 142   65   67 1
 143   66  170 1
 144   67  171 1
 145   67  172 1
 146   68   69 1
 147   68  173 1
 148   68  174 1
 149   69  175 1
 150   69  176 1
 151   70   75 1
 152   70   71 1
 153   70  177 1
 154   70  178 1
 155   71   73 1
 156   71   72 1
 157   71  179 1
 158   72   74 2
 159   72   81 am
 160   73  180 1
 161   75   76 1
 162   75  181 1
 163   75  182 1
 164   76   77 2
 165   76   78 am
 166   78  183 1
 167   78  184 1
 168   79   80 1
 169   79   81 1
 170   79   89 1
 171   79  185 1
 172   80   82 2
 173   80   93 am
 174   81  186 1
 175   83   84 ar
 176   83   88 ar
 177   83  187 1
 178   84   85 ar
 179   84  188 1
 180   85   86 ar
 181   85  189 1
 182   86   87 ar
 183   86  190 1
 184   87   88 ar
 185   87  191 1
 186   88   89 1
 187   89  192 1
 188   89  193 1
 189   90   95 1
 190   90   91 1
 191   90  194 1
 192   90  195 1
 193   91   92 1
 194   91   93 1
 195   91  196 1
 196   92   94 2
 197   93  197 1
 198   95  198 1
 199   96   97 2
 200   97   98 1
 201   98  199 1
 202   98  200 1
 203   98  201 1

#	End of record

