#	Name: ASD09740347
#	Creating user name:	WinNT
#	Creation time:	15. 06. 2019 21:23

#	Modifying user name:	WinNT
#	Modification time:	15. 06. 2019 21:23

#	Program:	/corina/corina34_cracker 3.40 0067  02.08.2006

@<TRIPOS>MOLECULE
ASD09740347
  60   63    0    0    0
SMALL
NO_CHARGES


@<TRIPOS>ATOM
   1 O1            -0.8079    -0.2293    -0.4245 O.3     
   2 O2            -1.2938     2.0822     0.9875 O.3     
   3 N3             5.5279    -0.2308    -1.4586 N.2     
   4 O4             4.3287    -0.2628    -1.2813 O.3     
   5 C5             6.0389     0.8478    -0.9197 C.2     
   6 N6             5.0233     1.5363    -0.3565 N.2     
   7 C7             3.9388     0.8212    -0.5921 C.2     
   8 C8             2.5603     1.1510    -0.1772 C.ar    
   9 C9             7.4680     1.2399    -0.9263 C.ar    
  10 C10            8.4540     0.3352    -0.4940 C.ar    
  11 C11            9.8072     0.7172    -0.5042 C.ar    
  12 C12           10.1564     1.9895    -0.9439 C.ar    
  13 C13            9.1817     2.8690    -1.3664 C.ar    
  14 C14            7.8463     2.5025    -1.3650 C.ar    
  15 C15            1.5073     0.2918    -0.5009 C.ar    
  16 C16            0.2195     0.6047    -0.1106 C.ar    
  17 C17           -0.0268     1.7755     0.6047 C.ar    
  18 C18            1.0190     2.6286     0.9261 C.ar    
  19 C19            2.3075     2.3191     0.5444 C.ar    
  20 C20           -1.4749     3.2972     1.7176 C.3     
  21 C21           -2.9561     3.4712     2.0588 C.3     
  22 C22           -0.4829    -1.4110    -1.1594 C.3     
  23 C23           -1.7570    -2.2177    -1.4174 C.3     
  24 N24           10.5346    -0.3542    -0.0344 N.pl3   
  25 C25            9.6940    -1.3890     0.2689 C.2     
  26 C26            8.4228    -1.0356     0.0133 C.2     
  27 C27            7.1976    -1.8901     0.2124 C.3     
  28 N28            6.8255    -2.5173    -1.0628 N.3     
  29 C29            7.8518    -3.4739    -1.4982 C.3     
  30 C30            5.5098    -3.1637    -0.9674 C.3     
  31 C31            4.9613    -3.4138    -2.3737 C.3     
  32 O32            5.7609    -4.4009    -3.0282 O.3     
  33 H33           11.1937     2.2898    -0.9541 H       
  34 H34            9.4637     3.8548    -1.7055 H       
  35 H35            7.0956     3.2034    -1.6991 H       
  36 H36            1.6995    -0.6149    -1.0554 H       
  37 H37            0.8242     3.5348     1.4804 H       
  38 H38            3.1198     2.9849     0.7959 H       
  39 H39           -0.8922     3.2583     2.6380 H       
  40 H40           -1.1404     4.1388     1.1111 H       
  41 H41           -3.2906     2.6296     2.6654 H       
  42 H42           -3.0942     4.3980     2.6157 H       
  43 H43           -3.5389     3.5101     1.1385 H       
  44 H44           -0.0294    -1.1338    -2.1110 H       
  45 H45            0.2193    -2.0147    -0.5845 H       
  46 H46           -1.5091    -3.1191    -1.9779 H       
  47 H47           -2.2105    -2.4949    -0.4657 H       
  48 H48           -2.4592    -1.6139    -1.9923 H       
  49 H49           11.4992    -0.3719     0.0660 H       
  50 H50           10.0054    -2.3480     0.6560 H       
  51 H51            7.4104    -2.6643     0.9496 H       
  52 H52            6.3746    -1.2686     0.5654 H       
  53 H53            7.8489    -4.3375    -0.8332 H       
  54 H54            7.6372    -3.7986    -2.5163 H       
  55 H55            8.8307    -2.9954    -1.4681 H       
  56 H56            5.6089    -4.1134    -0.4418 H       
  57 H57            4.8253    -2.5154    -0.4204 H       
  58 H58            3.9324    -3.7669    -2.3049 H       
  59 H59            4.9897    -2.4860    -2.9450 H       
  60 H60            5.4703    -4.6100    -3.9265 H       
@<TRIPOS>BOND
   1    1   22 1
   2    1   16 1
   3    2   20 1
   4    2   17 1
   5    3    4 1
   6    3    5 2
   7    4    7 1
   8    5    6 1
   9    5    9 1
  10    6    7 2
  11    7    8 1
  12    8   15 ar
  13    8   19 ar
  14    9   10 ar
  15    9   14 ar
  16   10   11 ar
  17   10   26 1
  18   11   12 ar
  19   11   24 1
  20   12   13 ar
  21   12   33 1
  22   13   14 ar
  23   13   34 1
  24   14   35 1
  25   15   16 ar
  26   15   36 1
  27   16   17 ar
  28   17   18 ar
  29   18   19 ar
  30   18   37 1
  31   19   38 1
  32   20   21 1
  33   20   39 1
  34   20   40 1
  35   21   41 1
  36   21   42 1
  37   21   43 1
  38   22   23 1
  39   22   44 1
  40   22   45 1
  41   23   46 1
  42   23   47 1
  43   23   48 1
  44   24   25 1
  45   24   49 1
  46   25   26 2
  47   25   50 1
  48   26   27 1
  49   27   28 1
  50   27   51 1
  51   27   52 1
  52   28   29 1
  53   28   30 1
  54   29   53 1
  55   29   54 1
  56   29   55 1
  57   30   31 1
  58   30   56 1
  59   30   57 1
  60   31   32 1
  61   31   58 1
  62   31   59 1
  63   32   60 1

#	End of record

