#	Name: ASD01884339
#	Creating user name:	WinNT
#	Creation time:	15. 06. 2019 19:48

#	Modifying user name:	WinNT
#	Modification time:	15. 06. 2019 19:48

#	Program:	/corina/corina34_cracker 3.40 0067  02.08.2006

@<TRIPOS>MOLECULE
ASD01884339
  56   59    0    0    0
SMALL
NO_CHARGES


@<TRIPOS>ATOM
   1 C1            -0.8088    -0.1746     1.2343 C.2     
   2 C2             0.0099    -0.0007     0.1057 C.2     
   3 C3            -0.4055     0.8913    -0.9003 C.2     
   4 C4            -1.5716     1.5606    -0.7697 C.2     
   5 N5            -2.3643     1.3936     0.3209 N.am    
   6 C6            -2.0218     0.5498     1.3120 C.2     
   7 O7            -2.7508     0.4177     2.2806 O.2     
   8 C8            -3.6200     2.1420     0.4171 C.3     
   9 C9            -0.4259    -1.0718     2.2826 C.1     
  10 N10           -0.1222    -1.7836     3.1143 N.1     
  11 N11            2.3740    -0.0068    -0.1246 N.3     
  12 C12            2.7865     0.5464     1.1729 C.3     
  13 C13            4.1459     1.2333     1.0226 C.3     
  14 N14            4.0471     2.2928     0.0091 N.3     
  15 C15            3.6346     1.7396    -1.2884 C.3     
  16 C16            2.2751     1.0527    -1.1381 C.3     
  17 C17            5.3139     3.0269    -0.1104 C.3     
  18 C18           -4.7491     1.3273    -0.2170 C.3     
  19 C19           -6.1691     1.8875    -0.1130 C.3     
  20 C20           -5.4334     1.9120    -1.4543 C.3     
  21 N21            1.1960    -0.6894    -0.0135 N.pl3   
  22 C22            5.2587     3.9315    -1.3145 C.ar    
  23 C23            4.7881     5.2249    -1.1848 C.ar    
  24 C24            4.7361     6.0564    -2.2881 C.ar    
  25 C25            5.1574     5.5912    -3.5263 C.ar    
  26 C26            5.6294     4.2930    -3.6527 C.ar    
  27 C27            5.6840     3.4680    -2.5459 C.ar    
  28 Cl28           4.1441     7.6802    -2.1254 Cl      
  29 O29            5.1070     6.4062    -4.6130 O.3     
  30 C30            5.5568     5.8603    -5.8547 C.3     
  31 F31            4.7773     4.7463    -6.1839 F       
  32 F32            5.4372     6.8265    -6.8594 F       
  33 F33            6.8961     5.4739    -5.7364 F       
  34 H34            0.2079     1.0410    -1.7764 H       
  35 H35           -1.8800     2.2429    -1.5481 H       
  36 H36           -3.8518     2.3295     1.4655 H       
  37 H37           -3.5181     3.0917    -0.1080 H       
  38 H38            2.0472     1.2729     1.5101 H       
  39 H39            2.8648    -0.2589     1.9033 H       
  40 H40            4.4404     1.6695     1.9771 H       
  41 H41            4.8910     0.5010     0.7117 H       
  42 H42            3.5563     2.5449    -2.0188 H       
  43 H43            4.3738     1.0131    -1.6256 H       
  44 H44            1.9806     0.6165    -2.0926 H       
  45 H45            1.5300     1.7850    -0.8272 H       
  46 H46            5.4730     3.6253     0.7866 H       
  47 H47            6.1346     2.3189    -0.2252 H       
  48 H48           -4.6306     0.2447    -0.1714 H       
  49 H49           -6.9848     1.1735     0.0007 H       
  50 H50           -6.2988     2.8365     0.4072 H       
  51 H51           -5.0791     2.8771    -1.8165 H       
  52 H52           -5.7651     1.2140    -2.2231 H       
  53 H53            1.1952    -1.6594    -0.0185 H       
  54 H54            4.4605     5.5859    -0.2211 H       
  55 H55            5.9574     3.9286    -4.6150 H       
  56 H56            6.0519     2.4574    -2.6441 H       
@<TRIPOS>BOND
   1    1    2 2
   2    1    9 1
   3    1    6 1
   4    2    3 1
   5    2   21 1
   6    3    4 2
   7    3   34 1
   8    4    5 1
   9    4   35 1
  10    5    6 am
  11    5    8 1
  12    6    7 2
  13    8   18 1
  14    8   36 1
  15    8   37 1
  16    9   10 3
  17   11   12 1
  18   11   16 1
  19   11   21 1
  20   12   13 1
  21   12   38 1
  22   12   39 1
  23   13   14 1
  24   13   40 1
  25   13   41 1
  26   14   15 1
  27   14   17 1
  28   15   16 1
  29   15   42 1
  30   15   43 1
  31   16   44 1
  32   16   45 1
  33   17   22 1
  34   17   46 1
  35   17   47 1
  36   18   19 1
  37   18   20 1
  38   18   48 1
  39   19   20 1
  40   19   49 1
  41   19   50 1
  42   20   51 1
  43   20   52 1
  44   21   53 1
  45   22   23 ar
  46   22   27 ar
  47   23   24 ar
  48   23   54 1
  49   24   25 ar
  50   24   28 1
  51   25   26 ar
  52   25   29 1
  53   26   27 ar
  54   26   55 1
  55   27   56 1
  56   29   30 1
  57   30   31 1
  58   30   32 1
  59   30   33 1

#	End of record

