#	Name: ASD01811668
#	Creating user name:	WinNT
#	Creation time:	15. 06. 2019 19:27

#	Modifying user name:	WinNT
#	Modification time:	15. 06. 2019 19:27

#	Program:	/corina/corina34_cracker 3.40 0067  02.08.2006

@<TRIPOS>MOLECULE
ASD01811668
  30   32    0    0    0
SMALL
NO_CHARGES


@<TRIPOS>ATOM
   1 C1             0.3049     1.7855     0.5722 C.ar    
   2 C2             0.1663     0.4068     0.5853 C.ar    
   3 C3             1.2653    -0.3978     0.3854 C.ar    
   4 C4             2.5314     0.1663     0.1679 C.ar    
   5 C5             2.6678     1.5535     0.1566 C.ar    
   6 C6             1.5417     2.3537     0.3600 C.ar    
   7 C7             3.6608    -0.7529    -0.0414 C.2     
   8 N8             4.6021    -0.5783    -0.9000 N.2     
   9 C9             4.6425     0.5940    -1.7733 C.3     
  10 C10            4.8044     1.8268    -0.9266 C.2     
  11 N11            3.8777     2.1975    -0.0459 N.am    
  12 S12            6.1243     2.7148    -1.0883 S.2     
  13 C13            3.7183    -1.9707     0.8004 C.ar    
  14 C14            4.4248    -3.0911     0.3635 C.ar    
  15 C15            4.4751    -4.2222     1.1521 C.ar    
  16 C16            3.8266    -4.2464     2.3739 C.ar    
  17 C17            3.1242    -3.1382     2.8127 C.ar    
  18 C18            3.0710    -1.9994     2.0354 C.ar    
  19 Br19          -1.5328    -0.3696     0.8783 Br      
  20 H20           -0.5590     2.4156     0.7242 H       
  21 H21            1.1521    -1.4718     0.3966 H       
  22 H22            1.6413     3.4291     0.3507 H       
  23 H23            5.4852     0.5092    -2.4595 H       
  24 H24            3.7135     0.6595    -2.3397 H       
  25 H25            4.0640     2.9798     0.4965 H       
  26 H26            4.9311    -3.0735    -0.5903 H       
  27 H27            5.0215    -5.0905     0.8148 H       
  28 H28            3.8685    -5.1342     2.9876 H       
  29 H29            2.6196    -3.1632     3.7673 H       
  30 H30            2.5224    -1.1349     2.3789 H       
@<TRIPOS>BOND
   1    1    2 ar
   2    1    6 ar
   3    1   20 1
   4    2    3 ar
   5    2   19 1
   6    3    4 ar
   7    3   21 1
   8    4    5 ar
   9    4    7 1
  10    5    6 ar
  11    5   11 1
  12    6   22 1
  13    7    8 2
  14    7   13 1
  15    8    9 1
  16    9   10 1
  17    9   23 1
  18    9   24 1
  19   10   11 am
  20   10   12 2
  21   11   25 1
  22   13   14 ar
  23   13   18 ar
  24   14   15 ar
  25   14   26 1
  26   15   16 ar
  27   15   27 1
  28   16   17 ar
  29   16   28 1
  30   17   18 ar
  31   17   29 1
  32   18   30 1

#	End of record

