#	Name: ASD04590910
#	Creating user name:	WinNT
#	Creation time:	15. 06. 2019 20:51

#	Modifying user name:	WinNT
#	Modification time:	15. 06. 2019 20:51

#	Program:	/corina/corina34_cracker 3.40 0067  02.08.2006

@<TRIPOS>MOLECULE
ASD04590910
  62   66    0    0    0
SMALL
NO_CHARGES


@<TRIPOS>ATOM
   1 N1            -0.0171     1.3232    -0.0119 N.ar    
   2 C2             0.0017    -0.0035    -0.0051 C.ar    
   3 N3             1.1298    -0.6949    -0.0118 N.ar    
   4 C4             2.3050    -0.0728    -0.0262 C.ar    
   5 C5             2.3189     1.3366    -0.0341 C.ar    
   6 C6             1.1072     2.0202    -0.0262 C.ar    
   7 N7             3.6031    -0.5195    -0.0358 N.pl3   
   8 C8             4.4823     0.5495    -0.0499 C.ar    
   9 C9             3.7312     1.7385    -0.0495 C.ar    
  10 C10            5.8680     0.6418    -0.0633 C.ar    
  11 N11            6.4613     1.8181    -0.0753 N.ar    
  12 C12            5.7850     2.9533    -0.0753 C.ar    
  13 C13            4.4063     2.9585    -0.0629 C.ar    
  14 N14           -1.2019    -0.6887     0.0098 N.pl3   
  15 C15           -2.4019     0.0120     0.1303 C.ar    
  16 N16           -2.3783     1.3196     0.3309 N.ar    
  17 C17           -3.4885     2.0229     0.4509 C.ar    
  18 C18           -4.7291     1.4087     0.3703 C.ar    
  19 C19           -4.7935     0.0321     0.1596 C.ar    
  20 C20           -3.6094    -0.6709     0.0326 C.ar    
  21 N21           -5.9023     2.1615     0.4995 N.3     
  22 C22            4.0018    -1.9292    -0.0312 C.3     
  23 C23           -6.7764     1.9778    -0.6661 C.3     
  24 C24            3.4578    -2.6090     1.2269 C.3     
  25 C25            3.4353    -2.6234    -1.2715 C.3     
  26 C26            3.9535    -4.0617    -1.3323 C.3     
  27 C27           -5.5955     3.5813     0.7146 C.3     
  28 C28           -6.8902     4.3474     0.9957 C.3     
  29 C29           -7.8414     4.1860    -0.1933 C.3     
  30 C30           -8.1064     2.6960    -0.4263 C.3     
  31 N31           -9.1086     4.8707     0.0953 N.3     
  32 C32           -9.7920     5.2586    -1.1459 C.3     
  33 H33            1.0848     3.1000    -0.0316 H       
  34 H34            6.4645    -0.2585    -0.0635 H       
  35 H35            6.3203     3.8912    -0.0851 H       
  36 H36            3.8596     3.8899    -0.0633 H       
  37 H37           -1.2103    -1.6559    -0.0635 H       
  38 H38           -3.4301     3.0889     0.6140 H       
  39 H39           -5.7459    -0.4729     0.0926 H       
  40 H40           -3.6221    -1.7382    -0.1317 H       
  41 H41            5.0895    -1.9992    -0.0406 H       
  42 H42           -6.2939     2.3929    -1.5510 H       
  43 H43           -6.9603     0.9142    -0.8182 H       
  44 H44            2.3701    -2.5390     1.2363 H       
  45 H45            3.7544    -3.6579     1.2303 H       
  46 H46            3.8614    -2.1144     2.1104 H       
  47 H47            2.3466    -2.6314    -1.2179 H       
  48 H48            3.7512    -2.0853    -2.1652 H       
  49 H49            3.5500    -4.5562    -2.2158 H       
  50 H50            5.0422    -4.0536    -1.3858 H       
  51 H51            3.6377    -4.5998    -0.4386 H       
  52 H52           -4.9217     3.6824     1.5654 H       
  53 H53           -5.1185     3.9889    -0.1767 H       
  54 H54           -7.3607     3.9494     1.8947 H       
  55 H55           -6.6639     5.4039     1.1398 H       
  56 H56           -7.3872     4.6189    -1.0846 H       
  57 H57           -8.7490     2.5726    -1.2980 H       
  58 H58           -8.5960     2.2720     0.4504 H       
  59 H59           -9.7056     4.2980     0.6730 H       
  60 H60           -9.1531     5.9321    -1.7172 H       
  61 H61          -10.0029     4.3682    -1.7381 H       
  62 H62          -10.7271     5.7635    -0.9033 H       
@<TRIPOS>BOND
   1    1    2 ar
   2    1    6 ar
   3    2    3 ar
   4    2   14 1
   5    3    4 ar
   6    4    5 ar
   7    4    7 1
   8    5    6 ar
   9    5    9 1
  10    6   33 1
  11    7    8 1
  12    7   22 1
  13    8    9 ar
  14    8   10 ar
  15    9   13 ar
  16   10   11 ar
  17   10   34 1
  18   11   12 ar
  19   12   13 ar
  20   12   35 1
  21   13   36 1
  22   14   15 1
  23   14   37 1
  24   15   16 ar
  25   15   20 ar
  26   16   17 ar
  27   17   18 ar
  28   17   38 1
  29   18   19 ar
  30   18   21 1
  31   19   20 ar
  32   19   39 1
  33   20   40 1
  34   21   27 1
  35   21   23 1
  36   22   24 1
  37   22   25 1
  38   22   41 1
  39   23   30 1
  40   23   42 1
  41   23   43 1
  42   24   44 1
  43   24   45 1
  44   24   46 1
  45   25   26 1
  46   25   47 1
  47   25   48 1
  48   26   49 1
  49   26   50 1
  50   26   51 1
  51   27   28 1
  52   27   52 1
  53   27   53 1
  54   28   29 1
  55   28   54 1
  56   28   55 1
  57   29   30 1
  58   29   31 1
  59   29   56 1
  60   30   57 1
  61   30   58 1
  62   31   32 1
  63   31   59 1
  64   32   60 1
  65   32   61 1
  66   32   62 1

#	End of record

