#	Name: ASD00431021
#	Creating user name:	WinNT
#	Creation time:	15. 06. 2019 18:35

#	Modifying user name:	WinNT
#	Modification time:	15. 06. 2019 18:35

#	Program:	/corina/corina34_cracker 3.40 0067  02.08.2006

@<TRIPOS>MOLECULE
ASD00431021
  28   28    0    0    0
SMALL
NO_CHARGES


@<TRIPOS>ATOM
   1 C1            -0.0168     1.3873     0.0097 C.ar    
   2 C2             0.0021    -0.0041     0.0020 C.ar    
   3 C3             1.1754     2.0934     0.0021 C.ar    
   4 C4             2.3801     1.4154    -0.0131 C.ar    
   5 C5             2.3989     0.0331    -0.0211 C.ar    
   6 C6             1.2130    -0.6774    -0.0132 C.ar    
   7 C7             3.7150    -0.7009    -0.0386 C.3     
   8 C8             4.1749    -0.9575     1.3978 C.3     
   9 N9             5.4578    -1.6730     1.3808 N.3     
  10 O10           -1.1654    -0.7015     0.0099 O.3     
  11 C11           -1.0695    -2.1272     0.0013 C.3     
  12 O12           -1.2028     2.0527     0.0189 O.3     
  13 C13           -1.1456     3.4806     0.0264 C.3     
  14 H14            1.1636     3.1733     0.0076 H       
  15 H15            3.3087     1.9669    -0.0190 H       
  16 H16            1.2304    -1.7572    -0.0198 H       
  17 H17            3.5936    -1.6522    -0.5567 H       
  18 H18            4.4605    -0.0976    -0.5566 H       
  19 H19            4.2963    -0.0062     1.9159 H       
  20 H20            3.4294    -1.5607     1.9158 H       
  21 H21            6.1489    -1.1637     0.8505 H       
  22 H22            5.7831    -1.8544     2.3185 H       
  23 H23           -0.5413    -2.4504    -0.8958 H       
  24 H24           -0.5236    -2.4600     0.8841 H       
  25 H25           -2.0704    -2.5588     0.0089 H       
  26 H26           -0.6134     3.8182     0.9157 H       
  27 H27           -0.6218     3.8279    -0.8642 H       
  28 H28           -2.1578     3.8847     0.0334 H       
@<TRIPOS>BOND
   1    1    2 ar
   2    1    3 ar
   3    1   12 1
   4    2   10 1
   5    2    6 ar
   6    3    4 ar
   7    3   14 1
   8    4    5 ar
   9    4   15 1
  10    5    6 ar
  11    5    7 1
  12    6   16 1
  13    7    8 1
  14    7   17 1
  15    7   18 1
  16    8    9 1
  17    8   19 1
  18    8   20 1
  19    9   21 1
  20    9   22 1
  21   10   11 1
  22   11   23 1
  23   11   24 1
  24   11   25 1
  25   12   13 1
  26   13   26 1
  27   13   27 1
  28   13   28 1

#	End of record

