#	Name: ASD03740106
#	Creating user name:	WinNT
#	Creation time:	15. 06. 2019 20:46

#	Modifying user name:	WinNT
#	Modification time:	15. 06. 2019 20:46

#	Program:	/corina/corina34_cracker 3.40 0067  02.08.2006

@<TRIPOS>MOLECULE
ASD03740106
  50   51    0    0    0
SMALL
NO_CHARGES


@<TRIPOS>ATOM
   1 C1            -0.0180     1.4733     0.0101 C.2     
   2 C2             0.0021    -0.0041     0.0020 C.2     
   3 C3             1.0480    -0.6652     0.5393 C.2     
   4 C4             2.1227     0.2076     1.0913 C.3     
   5 C5             2.3663     1.3063     0.0055 C.3     
   6 C6             1.1456     2.1577     0.0027 C.2     
   7 N7             3.4930    -0.2914     1.1719 N.pl3   
   8 N8             4.2758     0.8951     1.1240 N.2     
   9 C9             3.6713     1.8582     0.4765 C.2     
  10 O10            4.1398     3.1147     0.2721 O.3     
  11 C11            3.9507    -1.6791     1.2769 C.3     
  12 C12            4.1581    -2.2454    -0.1042 C.ar    
  13 C13            5.3896    -2.1291    -0.7212 C.ar    
  14 C14            5.5798    -2.6486    -1.9880 C.ar    
  15 C15            4.5386    -3.2848    -2.6377 C.ar    
  16 C16            3.3073    -3.4019    -2.0203 C.ar    
  17 C17            3.1184    -2.8862    -0.7517 C.ar    
  18 C18            5.4238     3.4250     0.8172 C.3     
  19 C19            5.7809     4.8757     0.4874 C.3     
  20 C20            7.1556     5.2079     1.0710 C.3     
  21 N21            7.4984     6.6008     0.7544 N.3     
  22 C22            8.6938     7.0297     1.4927 C.3     
  23 C23            7.6796     6.7826    -0.6920 C.3     
  24 H24           -0.9590     2.0031     0.0175 H       
  25 H25           -0.8195    -0.5538    -0.4331 H       
  26 H26            1.1023    -1.7434     0.5677 H       
  27 H27            1.8096     0.6535     2.0353 H       
  28 H28            2.4924     0.8388    -0.9710 H       
  29 H29            1.1873     3.2368    -0.0050 H       
  30 H30            4.8908    -1.7109     1.8276 H       
  31 H31            3.2011    -2.2701     1.8031 H       
  32 H32            6.2031    -1.6321    -0.2136 H       
  33 H33            6.5418    -2.5571    -2.4703 H       
  34 H34            4.6870    -3.6900    -3.6277 H       
  35 H35            2.4937    -3.8986    -2.5280 H       
  36 H36            2.1564    -2.9777    -0.2694 H       
  37 H37            5.4007     3.2934     1.8990 H       
  38 H38            6.1719     2.7597     0.3862 H       
  39 H39            5.8040     5.0073    -0.5944 H       
  40 H40            5.0327     5.5410     0.9184 H       
  41 H41            7.1325     5.0764     2.1528 H       
  42 H42            7.9037     4.5426     0.6400 H       
  43 H43            9.5358     6.3924     1.2225 H       
  44 H44            8.9253     8.0643     1.2398 H       
  45 H45            8.5072     6.9505     2.5637 H       
  46 H46            6.7557     6.5238    -1.2093 H       
  47 H47            7.9326     7.8225    -0.8986 H       
  48 H48            8.4849     6.1364    -1.0414 H       
  49 Cl49          14.5358    13.0643     7.5637 Cl      
  50 H50           14.5358    14.4343     7.5637 H       
@<TRIPOS>BOND
   1    1    2 1
   2    1    6 2
   3    1   24 1
   4    2    3 2
   5    2   25 1
   6    3    4 1
   7    3   26 1
   8    4    5 1
   9    4    7 1
  10    4   27 1
  11    5    6 1
  12    5    9 1
  13    5   28 1
  14    6   29 1
  15    7    8 1
  16    7   11 1
  17    8    9 2
  18    9   10 1
  19   10   18 1
  20   11   12 1
  21   11   30 1
  22   11   31 1
  23   12   13 ar
  24   12   17 ar
  25   13   14 ar
  26   13   32 1
  27   14   15 ar
  28   14   33 1
  29   15   16 ar
  30   15   34 1
  31   16   17 ar
  32   16   35 1
  33   17   36 1
  34   18   19 1
  35   18   37 1
  36   18   38 1
  37   19   20 1
  38   19   39 1
  39   19   40 1
  40   20   21 1
  41   20   41 1
  42   20   42 1
  43   21   22 1
  44   21   23 1
  45   22   43 1
  46   22   44 1
  47   22   45 1
  48   23   46 1
  49   23   47 1
  50   23   48 1
  51   49   50 1

#	End of record

