#	Name: ASD00311447
#	Creating user name:	WinNT
#	Creation time:	15. 06. 2019 18:34

#	Modifying user name:	WinNT
#	Modification time:	15. 06. 2019 18:34

#	Program:	/corina/corina34_cracker 3.40 0067  02.08.2006

@<TRIPOS>MOLECULE
ASD00311447
  47   51    0    0    0
SMALL
NO_CHARGES


@<TRIPOS>ATOM
   1 C1            -0.0167     1.3777     0.0096 C.2     
   2 C2             0.0021    -0.0041     0.0020 C.2     
   3 C3             1.2588    -0.6767    -0.0139 C.2     
   4 C4             2.4315     0.0673    -0.0214 C.2     
   5 C5             2.3574     1.4752    -0.0131 C.2     
   6 N6             1.1648     2.0903     0.0022 N.am    
   7 C7            -1.3432    -0.5752     0.0126 C.2     
   8 C8            -2.3227     0.3261     0.0274 C.2     
   9 S9            -1.6793     1.9562     0.0358 S.3     
  10 O10            3.3822     2.1373    -0.0196 O.2     
  11 C11            3.7476    -0.6120    -0.0375 C.ar    
  12 C12            4.5931    -0.4746    -1.1382 C.ar    
  13 C13            5.8182    -1.1095    -1.1470 C.ar    
  14 C14            6.2084    -1.8811    -0.0671 C.ar    
  15 C15            5.3740    -2.0216     1.0274 C.ar    
  16 C16            4.1489    -1.3870     1.0505 C.ar    
  17 C17           -2.0687    -4.7664    -0.0044 C.ar    
  18 C18           -2.7051    -3.9524     0.9326 C.ar    
  19 C19           -2.4704    -2.5954     0.9385 C.ar    
  20 C20           -1.5956    -2.0347     0.0069 C.ar    
  21 C21           -0.9590    -2.8494    -0.9304 C.ar    
  22 C22           -1.1942    -4.2063    -0.9358 C.ar    
  23 C23           -2.3169    -6.2279    -0.0065 C.ar    
  24 C24           -2.6575    -6.8811    -1.1957 C.ar    
  25 C25           -2.8872    -8.2471    -1.1884 C.ar    
  26 C26           -2.7804    -8.9611    -0.0095 C.ar    
  27 C27           -2.4438    -8.3181     1.1683 C.ar    
  28 C28           -2.2065    -6.9582     1.1746 C.ar    
  29 O29           -2.7630    -6.1782    -2.3535 O.3     
  30 O30            1.3087    -2.0292    -0.0212 O.3     
  31 H31            1.1326     3.0597     0.0073 H       
  32 H32           -3.3754     0.0846     0.0365 H       
  33 H33            4.2894     0.1272    -1.9820 H       
  34 H34            6.4736    -1.0042    -1.9989 H       
  35 H35            7.1682    -2.3761    -0.0786 H       
  36 H36            5.6838    -2.6258     1.8673 H       
  37 H37            3.5004    -1.4934     1.9076 H       
  38 H38           -3.3824    -4.3863     1.6534 H       
  39 H39           -2.9634    -1.9651     1.6638 H       
  40 H40           -0.2817    -2.4158    -1.6513 H       
  41 H41           -0.7013    -4.8368    -1.6609 H       
  42 H42           -3.1503    -8.7548    -2.1046 H       
  43 H43           -2.9610   -10.0259    -0.0078 H       
  44 H44           -2.3623    -8.8827     2.0853 H       
  45 H45           -1.9395    -6.4603     2.0951 H       
  46 H46           -1.9379    -6.1192    -2.8543 H       
  47 H47            2.2059    -2.3896    -0.0320 H       
@<TRIPOS>BOND
   1    1    2 2
   2    1    6 1
   3    1    9 1
   4    2    3 1
   5    2    7 1
   6    3    4 2
   7    3   30 1
   8    4    5 1
   9    4   11 1
  10    5    6 am
  11    5   10 2
  12    6   31 1
  13    7    8 2
  14    7   20 1
  15    8    9 1
  16    8   32 1
  17   11   12 ar
  18   11   16 ar
  19   12   13 ar
  20   12   33 1
  21   13   14 ar
  22   13   34 1
  23   14   15 ar
  24   14   35 1
  25   15   16 ar
  26   15   36 1
  27   16   37 1
  28   17   18 ar
  29   17   22 ar
  30   17   23 1
  31   18   19 ar
  32   18   38 1
  33   19   20 ar
  34   19   39 1
  35   20   21 ar
  36   21   22 ar
  37   21   40 1
  38   22   41 1
  39   23   24 ar
  40   23   28 ar
  41   24   25 ar
  42   24   29 1
  43   25   26 ar
  44   25   42 1
  45   26   27 ar
  46   26   43 1
  47   27   28 ar
  48   27   44 1
  49   28   45 1
  50   29   46 1
  51   30   47 1

#	End of record

