#	Name: ASD01914585
#	Creating user name:	WinNT
#	Creation time:	15. 06. 2019 20:03

#	Modifying user name:	WinNT
#	Modification time:	15. 06. 2019 20:03

#	Program:	/corina/corina34_cracker 3.40 0067  02.08.2006

@<TRIPOS>MOLECULE
ASD01914585
  56   60    0    0    0
SMALL
NO_CHARGES


@<TRIPOS>ATOM
   1 C1            -0.0158     1.3116     0.0093 C.ar    
   2 N2             0.0021    -0.0041     0.0020 N.ar    
   3 C3             1.1550    -0.6685    -0.0125 C.ar    
   4 C4             2.3492     0.0531    -0.0200 C.ar    
   5 C5             2.2795     1.4390    -0.0119 C.ar    
   6 N6             1.0941     2.0240     0.0025 N.ar    
   7 C7             1.1703    -2.1530    -0.0202 C.2     
   8 O8             2.2285    -2.7494    -0.0335 O.2     
   9 N9             0.0102    -2.8389    -0.0124 N.am    
  10 C10            0.0253    -4.3038    -0.0199 C.3     
  11 C11           -1.4118    -4.8288    -0.0086 C.3     
  12 C12           -1.3959    -6.3587    -0.0164 C.3     
  13 C13           -0.6574    -6.8675     1.2231 C.3     
  14 C14            0.7797    -6.3425     1.2118 C.3     
  15 C15            1.4940    -6.8387    -0.0469 C.3     
  16 C16            0.7554    -6.3299    -1.2865 C.3     
  17 C17            0.7396    -4.8000    -1.2786 C.3     
  18 C18           -0.6816    -6.8549    -1.2752 C.3     
  19 C19            0.7639    -4.8126     1.2197 C.3     
  20 N20           -2.7720    -6.8613    -0.0056 N.am    
  21 C21           -3.0045    -8.1889    -0.0100 C.2     
  22 O22           -2.0732    -8.9686    -0.0230 O.2     
  23 C23           -4.3997    -8.6985     0.0010 C.ar    
  24 N24           -4.6097   -10.0065    -0.0036 N.ar    
  25 C25           -5.8375   -10.4938     0.0059 C.ar    
  26 C26           -6.9134    -9.6166     0.0208 C.ar    
  27 C27           -6.6560    -8.2529     0.0252 C.ar    
  28 N28           -5.4029    -7.8340     0.0205 N.ar    
  29 C29           -6.0674   -11.9831     0.0001 C.3     
  30 C30           -1.3431     2.0252     0.0193 C.3     
  31 H31            3.3028    -0.4537    -0.0315 H       
  32 H32            3.1821     2.0320    -0.0170 H       
  33 H33           -0.8348    -2.3627    -0.0017 H       
  34 H34           -1.9206    -4.4753     0.8882 H       
  35 H35           -1.9379    -4.4663    -0.8917 H       
  36 H36           -1.1662    -6.5140     2.1199 H       
  37 H37           -0.6461    -7.9574     1.2175 H       
  38 H38            1.3059    -6.7050     2.0949 H       
  39 H39            2.5178    -6.4647    -0.0550 H       
  40 H40            1.5053    -7.9286    -0.0525 H       
  41 H41            1.2643    -6.6834    -2.1833 H       
  42 H42            0.2134    -4.4376    -2.1617 H       
  43 H43            1.7634    -4.4261    -1.2867 H       
  44 H44           -0.6704    -7.9448    -1.2808 H       
  45 H45           -1.2078    -6.4924    -2.1583 H       
  46 H46            1.7877    -4.4386     1.2116 H       
  47 H47            0.2550    -4.4591     2.1165 H       
  48 H48           -3.5157    -6.2387     0.0048 H       
  49 H49           -7.9278    -9.9871     0.0284 H       
  50 H50           -7.4698    -7.5429     0.0367 H       
  51 H51           -6.1127   -12.3477     1.0263 H       
  52 H52           -7.0074   -12.2037    -0.5056 H       
  53 H53           -5.2483   -12.4751    -0.5245 H       
  54 H54           -1.6583     2.1916     1.0494 H       
  55 H55           -1.2441     2.9839    -0.4898 H       
  56 H56           -2.0869     1.4162    -0.4943 H       
@<TRIPOS>BOND
   1    1    2 ar
   2    1    6 ar
   3    1   30 1
   4    2    3 ar
   5    3    4 ar
   6    3    7 1
   7    4    5 ar
   8    4   31 1
   9    5    6 ar
  10    5   32 1
  11    7    8 2
  12    7    9 am
  13    9   10 1
  14    9   33 1
  15   10   11 1
  16   10   17 1
  17   10   19 1
  18   11   12 1
  19   11   34 1
  20   11   35 1
  21   12   13 1
  22   12   18 1
  23   12   20 1
  24   13   14 1
  25   13   36 1
  26   13   37 1
  27   14   15 1
  28   14   19 1
  29   14   38 1
  30   15   16 1
  31   15   39 1
  32   15   40 1
  33   16   17 1
  34   16   18 1
  35   16   41 1
  36   17   42 1
  37   17   43 1
  38   18   44 1
  39   18   45 1
  40   19   46 1
  41   19   47 1
  42   20   21 am
  43   20   48 1
  44   21   22 2
  45   21   23 1
  46   23   24 ar
  47   23   28 ar
  48   24   25 ar
  49   25   26 ar
  50   25   29 1
  51   26   27 ar
  52   26   49 1
  53   27   28 ar
  54   27   50 1
  55   29   51 1
  56   29   52 1
  57   29   53 1
  58   30   54 1
  59   30   55 1
  60   30   56 1

#	End of record

