#	Name: ASD01911914
#	Creating user name:	WinNT
#	Creation time:	15. 06. 2019 19:58

#	Modifying user name:	WinNT
#	Modification time:	15. 06. 2019 19:58

#	Program:	/corina/corina34_cracker 3.40 0067  02.08.2006

@<TRIPOS>MOLECULE
ASD01911914
  38   40    0    0    0
SMALL
NO_CHARGES


@<TRIPOS>ATOM
   1 C1            -1.0488    -0.4839    -2.0513 C.ar    
   2 C2            -1.0617     0.0599    -0.7709 C.ar    
   3 C3            -1.0260     1.4447    -0.6425 C.ar    
   4 N4            -0.9813     2.1897    -1.7347 N.ar    
   5 C5            -0.9705     1.6366    -2.9309 C.ar    
   6 N6            -1.0033     0.3292    -3.0937 N.ar    
   7 O7            -1.1085    -0.7409     0.3262 O.3     
   8 C8            -1.1452    -2.0854     0.1334 C.ar    
   9 C9             0.0138    -2.7701    -0.2047 C.ar    
  10 C10           -0.0223    -4.1394    -0.4013 C.ar    
  11 C11           -1.2140    -4.8290    -0.2617 C.ar    
  12 C12           -2.3757    -4.1472     0.0761 C.ar    
  13 C13           -2.3390    -2.7745     0.2800 C.ar    
  14 N14           -3.5802    -4.8437     0.2168 N.am    
  15 C15           -3.5761    -6.1115     0.6741 C.2     
  16 C16           -4.8357    -6.8834     0.7237 C.ar    
  17 O17           -2.5364    -6.6202     1.0457 O.2     
  18 C18           -6.0310    -6.3023     0.2978 C.ar    
  19 F19            1.1071    -4.8038    -0.7304 F       
  20 C20           -7.2033    -7.0283     0.3468 C.ar    
  21 C21           -7.1956    -8.3293     0.8172 C.ar    
  22 C22           -6.0139    -8.9114     1.2410 C.ar    
  23 C23           -4.8339    -8.1988     1.1915 C.ar    
  24 C24           -6.0151   -10.3291     1.7520 C.3     
  25 F25           -7.3158   -10.8419     1.7013 F       
  26 F26           -5.1736   -11.1127     0.9551 F       
  27 F27           -5.5572   -10.3489     3.0737 F       
  28 H28           -1.0710    -1.5545    -2.1921 H       
  29 H29           -1.0350     1.9048     0.3345 H       
  30 H30           -0.9337     2.2729    -3.8027 H       
  31 H31            0.9447    -2.2336    -0.3148 H       
  32 H32           -1.2406    -5.8976    -0.4158 H       
  33 H33           -3.2414    -2.2427     0.5431 H       
  34 H34           -4.4186    -4.4143    -0.0148 H       
  35 H35           -6.0385    -5.2865    -0.0690 H       
  36 H36           -8.1290    -6.5799     0.0175 H       
  37 H37           -8.1161    -8.8930     0.8541 H       
  38 H38           -3.9123    -8.6542     1.5226 H       
@<TRIPOS>BOND
   1    1    2 ar
   2    1    6 ar
   3    1   28 1
   4    2    3 ar
   5    2    7 1
   6    3    4 ar
   7    3   29 1
   8    4    5 ar
   9    5    6 ar
  10    5   30 1
  11    7    8 1
  12    8    9 ar
  13    8   13 ar
  14    9   10 ar
  15    9   31 1
  16   10   11 ar
  17   10   19 1
  18   11   12 ar
  19   11   32 1
  20   12   13 ar
  21   12   14 1
  22   13   33 1
  23   14   15 am
  24   14   34 1
  25   15   16 1
  26   15   17 2
  27   16   18 ar
  28   16   23 ar
  29   18   20 ar
  30   18   35 1
  31   20   21 ar
  32   20   36 1
  33   21   22 ar
  34   21   37 1
  35   22   23 ar
  36   22   24 1
  37   23   38 1
  38   24   25 1
  39   24   26 1
  40   24   27 1

#	End of record

