#	Name: ASD02030766
#	Creating user name:	WinNT
#	Creation time:	15. 06. 2019 20:16

#	Modifying user name:	WinNT
#	Modification time:	15. 06. 2019 20:16

#	Program:	/corina/corina34_cracker 3.40 0067  02.08.2006

@<TRIPOS>MOLECULE
ASD02030766
  49   51    0    0    0
SMALL
NO_CHARGES


@<TRIPOS>ATOM
   1 C1            -0.0167     1.3831     0.0096 C.ar    
   2 C2             0.0021    -0.0041     0.0020 C.ar    
   3 C3            -2.2901    -0.0328     0.0229 C.ar    
   4 C4            -2.3056     1.3615     0.0204 C.ar    
   5 C5            -3.5634    -0.7900     0.0248 C.2     
   6 C6            -3.5933    -6.7408     0.0390 C.2     
   7 C7            -5.5126    -5.4893     0.0343 C.3     
   8 C8            -2.6652    -7.9281     0.0417 C.3     
   9 C9             1.3180    -0.7383    -0.0135 C.3     
  10 C10            6.7162     2.0311     0.1181 C.ar    
  11 C11            6.3883     1.6946    -1.1863 C.ar    
  12 C12            5.2075     2.1554    -1.7424 C.ar    
  13 C13            4.3568     2.9502    -0.9974 C.ar    
  14 C14            4.6839     3.2858     0.3033 C.ar    
  15 C15            5.8622     2.8272     0.8615 C.ar    
  16 S16            2.8542     3.5368    -1.7064 S.o2    
  17 N17            1.6861     2.4086    -1.3824 N.am    
  18 C18            1.2793     2.1520     0.0014 C.3     
  19 N19           -1.1288    -0.6810     0.0087 N.ar    
  20 N20           -1.1677     2.0321     0.0186 N.ar    
  21 O21           -4.6235    -0.1960     0.0243 O.2     
  22 N22           -3.5461    -2.1377     0.0273 N.am    
  23 C23           -4.8053    -2.8864     0.0292 C.3     
  24 C24           -4.5109    -4.3644     0.0318 C.2     
  25 S25           -3.1055    -5.0434     0.0314 S.o     
  26 N26           -4.8620    -6.7864     0.0364 N.2     
  27 O27            2.4968     4.7046    -0.9799 O.2     
  28 O28            3.0436     3.5253    -3.1147 O.2     
  29 F29            7.2205     0.9180    -1.9140 F       
  30 F30            7.8656     1.5779     0.6648 F       
  31 H31           -3.2463     1.8921     0.0195 H       
  32 H32           -6.1398    -5.4051     0.9217 H       
  33 H33           -2.4393    -8.2104     1.0700 H       
  34 H34           -3.1438    -8.7644    -0.4679 H       
  35 H35           -1.7414    -7.6683    -0.4751 H       
  36 H36            1.6443    -0.9208     1.0104 H       
  37 H37            1.1972    -1.6897    -0.5314 H       
  38 H38            2.0644    -0.1353    -0.5307 H       
  39 H39            4.9511     1.8942    -2.7585 H       
  40 H40            4.0181     3.9073     0.8837 H       
  41 H41            6.1165     3.0901     1.8776 H       
  42 H42            1.2712     1.9177    -2.1089 H       
  43 H43            1.1426     3.1001     0.5217 H       
  44 H44            2.0507     1.5693     0.5048 H       
  45 H45           -2.6999    -2.6118     0.0277 H       
  46 H46           -5.3798    -2.6289     0.9190 H       
  47 H47           -5.3807    -2.6321    -0.8609 H       
  48 H48           -2.6742    -4.8469     1.2901 H       
  49 H49           -6.1415    -5.4076    -0.8522 H       
@<TRIPOS>BOND
   1    1    2 ar
   2    1   18 1
   3    1   20 ar
   4    2    9 1
   5    2   19 ar
   6    3    4 ar
   7    3    5 1
   8    3   19 ar
   9    4   20 ar
  10    4   31 1
  11    5   21 2
  12    5   22 am
  13    6    8 1
  14    6   25 1
  15    6   26 2
  16    7   24 1
  17    7   26 1
  18    7   32 1
  19    7   49 1
  20    8   33 1
  21    8   34 1
  22    8   35 1
  23    9   36 1
  24    9   37 1
  25    9   38 1
  26   10   11 ar
  27   10   15 ar
  28   10   30 1
  29   11   12 ar
  30   11   29 1
  31   12   13 ar
  32   12   39 1
  33   13   14 ar
  34   13   16 1
  35   14   15 ar
  36   14   40 1
  37   15   41 1
  38   16   17 am
  39   16   27 2
  40   16   28 2
  41   17   18 1
  42   17   42 1
  43   18   43 1
  44   18   44 1
  45   22   23 1
  46   22   45 1
  47   23   24 1
  48   23   46 1
  49   23   47 1
  50   24   25 2
  51   25   48 1

#	End of record

