#	Name: ASD00100106
#	Creating user name:	WinNT
#	Creation time:	15. 06. 2019 18:30

#	Modifying user name:	WinNT
#	Modification time:	15. 06. 2019 18:30

#	Program:	/corina/corina34_cracker 3.40 0067  02.08.2006

@<TRIPOS>MOLECULE
ASD00100106
  42   44    0    0    0
SMALL
NO_CHARGES


@<TRIPOS>ATOM
   1 C1             2.0653     0.6948    -0.1417 C.2     
   2 N2             1.3852    -0.3945     0.1202 N.2     
   3 C3             0.0655    -0.0879     0.1918 C.2     
   4 C4            -0.0663     1.2424    -0.0354 C.2     
   5 N5             1.1974     1.7379    -0.2463 N.pl3   
   6 N6             3.4403     0.7727    -0.2827 N.pl3   
   7 C7            -1.0380    -1.0397     0.4691 C.ar    
   8 C8            -0.7607    -2.3883     0.6857 C.ar    
   9 C9            -1.7913    -3.2691     0.9438 C.ar    
  10 C10           -3.0974    -2.8158     0.9877 C.ar    
  11 C11           -3.3785    -1.4784     0.7735 C.ar    
  12 C12           -2.3554    -0.5876     0.5198 C.ar    
  13 C13            1.5465     3.1319    -0.5313 C.3     
  14 C14            1.5813     3.3463    -2.0226 C.ar    
  15 C15            0.4126     3.6355    -2.7099 C.ar    
  16 C16            0.4472     3.8324    -4.0831 C.ar    
  17 C17            1.6453     3.7405    -4.7654 C.ar    
  18 C18            2.8115     3.4523    -4.0826 C.ar    
  19 C19            2.7829     3.2602    -2.7085 C.ar    
  20 O20            3.9311     2.9823    -2.0368 O.3     
  21 C21            5.1322     2.9088    -2.8075 C.3     
  22 O22           -0.7661     3.7256    -2.0395 O.3     
  23 C23           -1.9302     4.0266    -2.8116 C.3     
  24 H24           -0.9883     1.8047    -0.0485 H       
  25 H25            3.9733    -0.0377    -0.2947 H       
  26 H26            3.8708     1.6376    -0.3695 H       
  27 H27            0.2587    -2.7434     0.6513 H       
  28 H28           -1.5776    -4.3144     1.1114 H       
  29 H29           -3.9008    -3.5088     1.1896 H       
  30 H30           -4.4002    -1.1301     0.8086 H       
  31 H31           -2.5756     0.4571     0.3568 H       
  32 H32            0.8011     3.7913    -0.0867 H       
  33 H33            2.5265     3.3546    -0.1093 H       
  34 H34           -0.4630     4.0574    -4.6191 H       
  35 H35            1.6701     3.8937    -5.8342 H       
  36 H36            3.7466     3.3810    -4.6181 H       
  37 H37            5.3059     3.8648    -3.3016 H       
  38 H38            5.9719     2.6813    -2.1509 H       
  39 H39            5.0348     2.1244    -3.5580 H       
  40 H40           -1.7998     4.9896    -3.3053 H       
  41 H41           -2.0789     3.2505    -3.5624 H       
  42 H42           -2.8000     4.0693    -2.1560 H       
@<TRIPOS>BOND
   1    1    2 2
   2    1    5 1
   3    1    6 1
   4    2    3 1
   5    3    4 2
   6    3    7 1
   7    4    5 1
   8    4   24 1
   9    5   13 1
  10    6   25 1
  11    6   26 1
  12    7    8 ar
  13    7   12 ar
  14    8    9 ar
  15    8   27 1
  16    9   10 ar
  17    9   28 1
  18   10   11 ar
  19   10   29 1
  20   11   12 ar
  21   11   30 1
  22   12   31 1
  23   13   14 1
  24   13   32 1
  25   13   33 1
  26   14   15 ar
  27   14   19 ar
  28   15   16 ar
  29   15   22 1
  30   16   17 ar
  31   16   34 1
  32   17   18 ar
  33   17   35 1
  34   18   19 ar
  35   18   36 1
  36   19   20 1
  37   20   21 1
  38   21   37 1
  39   21   38 1
  40   21   39 1
  41   22   23 1
  42   23   40 1
  43   23   41 1
  44   23   42 1

#	End of record

