#	Name: ASD01917218
#	Creating user name:	WinNT
#	Creation time:	15. 06. 2019 20:08

#	Modifying user name:	WinNT
#	Modification time:	15. 06. 2019 20:08

#	Program:	/corina/corina34_cracker 3.40 0067  02.08.2006

@<TRIPOS>MOLECULE
ASD01917218
  43   46    0    0    0
SMALL
NO_CHARGES


@<TRIPOS>ATOM
   1 N1            -0.0233     1.3498    -0.0042 N.pl3   
   2 C2            -0.0025    -0.0199     0.0090 C.2     
   3 C3             1.2656    -0.7793    -0.0099 C.2     
   4 N4             2.2382    -0.3077     0.8090 N.am    
   5 C5             1.8935     0.6657     1.8332 C.3     
   6 C6             1.8911     2.1080     1.3287 C.3     
   7 C7             1.1801     2.1791    -0.0300 C.3     
   8 N8            -1.3599     1.7475     0.0174 N.2     
   9 C9            -2.1191     0.6730     0.0457 C.2     
  10 C10           -1.2950    -0.4604     0.0376 C.2     
  11 O11            1.4254    -1.7600    -0.7114 O.2     
  12 C12            3.5527    -0.7510     0.6711 C.ar    
  13 C13            4.0054    -1.8138     1.4449 C.ar    
  14 C14            5.3118    -2.2448     1.2985 C.ar    
  15 C15            6.1253    -1.5941     0.3779 C.ar    
  16 C16            5.6078    -0.5440    -0.3579 C.ar    
  17 N17            4.3556    -0.1596    -0.1989 N.ar    
  18 F18            7.4073    -1.9833     0.2043 F       
  19 O19           -3.4787     0.6639     0.0745 O.3     
  20 C20           -4.1361     1.9327     0.0732 C.3     
  21 C21           -5.6284     1.7253     0.1071 C.ar    
  22 C22           -6.2876     1.6444     1.3195 C.ar    
  23 C23           -7.6565     1.4541     1.3506 C.ar    
  24 C24           -8.3661     1.3451     0.1693 C.ar    
  25 C25           -7.7071     1.4269    -1.0430 C.ar    
  26 C26           -6.3388     1.6216    -1.0742 C.ar    
  27 H27            0.9019     0.4296     2.2193 H       
  28 H28            2.6114     0.5827     2.6491 H       
  29 H29            1.3686     2.7420     2.0451 H       
  30 H30            2.9183     2.4557     1.2192 H       
  31 H31            1.8516     1.8188    -0.8094 H       
  32 H32            0.9037     3.2122    -0.2406 H       
  33 H33           -1.6209    -1.4899     0.0558 H       
  34 H34            3.3460    -2.2963     2.1511 H       
  35 H35            5.6912    -3.0677     1.8862 H       
  36 H36            6.2351    -0.0347    -1.0746 H       
  37 H37           -3.8285     2.5022     0.9502 H       
  38 H38           -3.8659     2.4810    -0.8292 H       
  39 H39           -5.7332     1.7295     2.2424 H       
  40 H40           -8.1714     1.3902     2.2978 H       
  41 H41           -9.4355     1.1958     0.1936 H       
  42 H42           -8.2615     1.3415    -1.9659 H       
  43 H43           -5.8244     1.6892    -2.0214 H       
@<TRIPOS>BOND
   1    1    2 1
   2    1    7 1
   3    1    8 1
   4    2    3 1
   5    2   10 2
   6    3    4 am
   7    3   11 2
   8    4    5 1
   9    4   12 1
  10    5    6 1
  11    5   27 1
  12    5   28 1
  13    6    7 1
  14    6   29 1
  15    6   30 1
  16    7   31 1
  17    7   32 1
  18    8    9 2
  19    9   10 1
  20    9   19 1
  21   10   33 1
  22   12   13 ar
  23   12   17 ar
  24   13   14 ar
  25   13   34 1
  26   14   15 ar
  27   14   35 1
  28   15   16 ar
  29   15   18 1
  30   16   17 ar
  31   16   36 1
  32   19   20 1
  33   20   21 1
  34   20   37 1
  35   20   38 1
  36   21   22 ar
  37   21   26 ar
  38   22   23 ar
  39   22   39 1
  40   23   24 ar
  41   23   40 1
  42   24   25 ar
  43   24   41 1
  44   25   26 ar
  45   25   42 1
  46   26   43 1

#	End of record

