#	Name: ASD01813473
#	Creating user name:	WinNT
#	Creation time:	15. 06. 2019 19:30

#	Modifying user name:	WinNT
#	Modification time:	15. 06. 2019 19:30

#	Program:	/corina/corina34_cracker 3.40 0067  02.08.2006

@<TRIPOS>MOLECULE
ASD01813473
  42   46    0    0    0
SMALL
NO_CHARGES


@<TRIPOS>ATOM
   1 C1            -0.0178     1.4608     0.0101 C.3     
   2 N2             0.0021    -0.0041     0.0020 N.pl3   
   3 C3             0.0078    -0.7885    -1.0945 C.2     
   4 C4             0.0273    -2.0861    -0.6736 C.2     
   5 C5             0.0335    -2.0759     0.7348 C.2     
   6 N6             0.0245    -0.8309     1.1317 N.2     
   7 C7             0.0397    -3.2902    -1.5424 C.ar    
   8 C8             0.0373    -3.1515    -2.9282 C.ar    
   9 C9             0.0488    -4.2753    -3.7335 C.ar    
  10 F10            0.0470    -4.1419    -5.0779 F       
  11 C11            0.0628    -5.5377    -3.1639 C.ar    
  12 C12            0.0753    -6.7598    -4.0457 C.3     
  13 N13            1.4605    -7.1409    -4.3323 N.am    
  14 C14            2.2694    -6.6656    -5.4612 C.3     
  15 C15            3.6134    -7.3380    -5.3208 C.2     
  16 C16            4.7817    -7.2795    -6.0853 C.2     
  17 C17            5.8721    -8.0096    -5.7168 C.2     
  18 C18            5.8056    -8.8170    -4.5646 C.2     
  19 N19            6.6733    -9.6181    -3.9671 N.2     
  20 N20            6.1236   -10.1392    -2.9265 N.2     
  21 C21            4.8929    -9.7078    -2.8015 C.2     
  22 N22            4.6498    -8.8624    -3.8256 N.pl3   
  23 C23            3.5489    -8.1216    -4.2025 C.2     
  24 C24            2.2146    -7.9825    -3.6041 C.2     
  25 O25            1.8439    -8.5500    -2.5939 O.2     
  26 C26            0.0657    -5.6801    -1.7863 C.ar    
  27 F27            0.0797    -6.9137    -1.2357 F       
  28 C28            0.0595    -4.5614    -0.9737 C.ar    
  29 H29            1.0048     1.8381     0.0023 H       
  30 H30           -0.5450     1.8219    -0.8730 H       
  31 H31           -0.5280     1.8123     0.9069 H       
  32 H32           -0.0018    -0.4508    -2.1203 H       
  33 H33            0.0482    -2.9455     1.3751 H       
  34 H34            0.0261    -2.1675    -3.3731 H       
  35 H35           -0.4294    -7.5806    -3.5362 H       
  36 H36           -0.4415    -6.5392    -4.9797 H       
  37 H37            1.8031    -6.9515    -6.4040 H       
  38 H38            2.3841    -5.5828    -5.4113 H       
  39 H39            4.8205    -6.6569    -6.9669 H       
  40 H40            6.7783    -7.9696    -6.3029 H       
  41 H41            4.1982    -9.9796    -2.0205 H       
  42 H42            0.0660    -4.6732     0.1005 H       
@<TRIPOS>BOND
   1    1    2 1
   2    1   29 1
   3    1   30 1
   4    1   31 1
   5    2    6 1
   6    2    3 1
   7    3    4 2
   8    3   32 1
   9    4    5 1
  10    4    7 1
  11    5    6 2
  12    5   33 1
  13    7   28 ar
  14    7    8 ar
  15    8    9 ar
  16    8   34 1
  17    9   10 1
  18    9   11 ar
  19   11   12 1
  20   11   26 ar
  21   12   13 1
  22   12   35 1
  23   12   36 1
  24   13   24 am
  25   13   14 1
  26   14   15 1
  27   14   37 1
  28   14   38 1
  29   15   23 2
  30   15   16 1
  31   16   17 2
  32   16   39 1
  33   17   18 1
  34   17   40 1
  35   18   22 1
  36   18   19 2
  37   19   20 1
  38   20   21 2
  39   21   22 1
  40   21   41 1
  41   22   23 1
  42   23   24 1
  43   24   25 2
  44   26   27 1
  45   26   28 ar
  46   28   42 1

#	End of record

