#	Name: ASD01730019
#	Creating user name:	WinNT
#	Creation time:	15. 06. 2019 19:23

#	Modifying user name:	WinNT
#	Modification time:	15. 06. 2019 19:23

#	Program:	/corina/corina34_cracker 3.40 0067  02.08.2006

@<TRIPOS>MOLECULE
ASD01730019
  37   39    0    0    0
SMALL
NO_CHARGES


@<TRIPOS>ATOM
   1 N1            -0.0162     1.3436     0.0094 N.am    
   2 C2             0.0021    -0.0041     0.0020 C.2     
   3 S3             1.4961    -0.8398    -0.0167 S.2     
   4 N4            -1.1558    -0.6938     0.0094 N.am    
   5 S5            -2.5667    -3.1016     0.0099 S.3     
   6 C6            -1.1370    -2.0786     0.0018 C.2     
   7 N7            -0.0701    -2.7990    -0.0131 N.2     
   8 C8            -0.2140    -4.1403    -0.0195 C.ar    
   9 C9            -1.5529    -4.5426    -0.0086 C.ar    
  10 C10            0.7867    -5.1345    -0.0353 C.ar    
  11 C11            0.4478    -6.4638    -0.0397 C.ar    
  12 C12           -0.8878    -6.8530    -0.0288 C.ar    
  13 C13           -1.8834    -5.8954    -0.0137 C.ar    
  14 O14           -1.2126    -8.1735    -0.0336 O.3     
  15 C15           -0.1312    -9.1076    -0.0501 C.3     
  16 F16            0.6641    -8.9203     1.0854 F       
  17 F17           -0.6405   -10.4106    -0.0530 F       
  18 F18            0.6413    -8.9063    -1.1990 F       
  19 C19            1.2424     2.0932     0.0014 C.3     
  20 C20            0.9470     3.5710     0.0122 C.ar    
  21 C21            0.8230     4.2418     1.2146 C.ar    
  22 C22            0.5526     5.5970     1.2257 C.ar    
  23 C23            0.4058     6.2829     0.0319 C.ar    
  24 C24            0.5301     5.6100    -1.1717 C.ar    
  25 C25            0.8058     4.2558    -1.1804 C.ar    
  26 F26            0.1409     7.6077     0.0416 F       
  27 H27           -0.8627     1.8171     0.0160 H       
  28 H28           -2.0023    -0.2203     0.0200 H       
  29 H29            1.8277    -4.8469    -0.0442 H       
  30 H30            1.2242    -7.2144    -0.0522 H       
  31 H31           -2.9205    -6.1966    -0.0052 H       
  32 H32            1.8260     1.8329     0.8845 H       
  33 H33            1.8090     1.8425    -0.8954 H       
  34 H34            0.9372     3.7065     2.1456 H       
  35 H35            0.4554     6.1208     2.1652 H       
  36 H36            0.4158     6.1440    -2.1035 H       
  37 H37            0.9069     3.7315    -2.1192 H       
@<TRIPOS>BOND
   1    1    2 am
   2    1   19 1
   3    1   27 1
   4    2    3 2
   5    2    4 am
   6    4    6 1
   7    4   28 1
   8    5    6 1
   9    5    9 1
  10    6    7 2
  11    7    8 1
  12    8    9 ar
  13    8   10 ar
  14    9   13 ar
  15   10   11 ar
  16   10   29 1
  17   11   12 ar
  18   11   30 1
  19   12   13 ar
  20   12   14 1
  21   13   31 1
  22   14   15 1
  23   15   16 1
  24   15   17 1
  25   15   18 1
  26   19   20 1
  27   19   32 1
  28   19   33 1
  29   20   21 ar
  30   20   25 ar
  31   21   22 ar
  32   21   34 1
  33   22   23 ar
  34   22   35 1
  35   23   24 ar
  36   23   26 1
  37   24   25 ar
  38   24   36 1
  39   25   37 1

#	End of record

