#	Name: ASD08150021
#	Creating user name:	WinNT
#	Creation time:	15. 06. 2019 21:15

#	Modifying user name:	WinNT
#	Modification time:	15. 06. 2019 21:15

#	Program:	/corina/corina34_cracker 3.40 0067  02.08.2006

@<TRIPOS>MOLECULE
ASD08150021
  46   50    0    0    0
SMALL
NO_CHARGES


@<TRIPOS>ATOM
   1 N1            -0.0155     1.2944     0.0092 N.2     
   2 C2             0.0021    -0.0041     0.0020 C.2     
   3 N3             1.1484    -0.7360    -0.0124 N.am    
   4 C4             2.3558    -0.1245    -0.0206 C.2     
   5 C5             2.3702     1.3454    -0.0133 C.ar    
   6 C6             3.5601     2.0707    -0.0212 C.ar    
   7 C7             3.5158     3.4475    -0.0143 C.ar    
   8 C8             2.2979     4.1151     0.0008 C.ar    
   9 C9             1.1112     3.4175     0.0093 C.ar    
  10 C10            1.1296     2.0211     0.0021 C.ar    
  11 O11            3.3898    -0.7669    -0.0331 O.2     
  12 C12           -1.3145    -0.7372     0.0106 C.3     
  13 S13           -2.6718     0.4601     0.0300 S.3     
  14 N14           -5.9165     1.0936     0.0643 N.2     
  15 C15           -7.2137     0.9891     0.0762 C.2     
  16 N16           -7.5749    -0.3254     0.0732 N.pl3   
  17 C17           -6.4218    -1.0686     0.0585 C.ar    
  18 N18           -6.1429    -2.3682     0.0491 N.ar    
  19 C19           -4.8948    -2.7869     0.0348 C.ar    
  20 N20           -3.8686    -1.9563     0.0285 N.ar    
  21 C21           -4.0491    -0.6388     0.0373 C.ar    
  22 C22           -5.3646    -0.1433     0.0530 C.ar    
  23 C23            1.0787    -2.1360    -0.0184 C.ar    
  24 C24            1.0555    -2.8395     1.1842 C.ar    
  25 C25            0.9860    -4.2231     1.1721 C.ar    
  26 C26            0.9399    -4.9027    -0.0311 C.ar    
  27 C27            0.9634    -4.2053    -1.2247 C.ar    
  28 C28            1.0268    -2.8246    -1.2213 C.ar    
  29 O29            1.1013    -2.1699     2.3664 O.3     
  30 C30            1.0738    -2.9565     3.5591 C.3     
  31 H31            4.5101     1.5571    -0.0323 H       
  32 H32            4.4361     4.0128    -0.0204 H       
  33 H33            2.2817     5.1949     0.0064 H       
  34 H34            0.1703     3.9476     0.0218 H       
  35 H35           -1.3905    -1.3581    -0.8820 H       
  36 H36           -1.3735    -1.3677     0.8979 H       
  37 H37           -7.9024     1.8210     0.0868 H       
  38 H38           -8.4810    -0.6717     0.0801 H       
  39 H39           -4.7032    -3.8497     0.0278 H       
  40 H40            0.9682    -4.7710     2.1026 H       
  41 H41            0.8858    -5.9813    -0.0387 H       
  42 H42            0.9279    -4.7405    -2.1621 H       
  43 H43            1.0405    -2.2822    -2.1551 H       
  44 H44            0.1535    -3.5399     3.5884 H       
  45 H45            1.9311    -3.6295     3.5703 H       
  46 H46            1.1157    -2.3002     4.4283 H       
@<TRIPOS>BOND
   1    1    2 2
   2    1   10 1
   3    2    3 1
   4    2   12 1
   5    3    4 am
   6    3   23 1
   7    4    5 1
   8    4   11 2
   9    5    6 ar
  10    5   10 ar
  11    6    7 ar
  12    6   31 1
  13    7    8 ar
  14    7   32 1
  15    8    9 ar
  16    8   33 1
  17    9   10 ar
  18    9   34 1
  19   12   13 1
  20   12   35 1
  21   12   36 1
  22   13   21 1
  23   14   15 2
  24   14   22 1
  25   15   16 1
  26   15   37 1
  27   16   17 1
  28   16   38 1
  29   17   18 ar
  30   17   22 ar
  31   18   19 ar
  32   19   20 ar
  33   19   39 1
  34   20   21 ar
  35   21   22 ar
  36   23   24 ar
  37   23   28 ar
  38   24   25 ar
  39   24   29 1
  40   25   26 ar
  41   25   40 1
  42   26   27 ar
  43   26   41 1
  44   27   28 ar
  45   27   42 1
  46   28   43 1
  47   29   30 1
  48   30   44 1
  49   30   45 1
  50   30   46 1

#	End of record

