#	Name: ASD01881706
#	Creating user name:	WinNT
#	Creation time:	15. 06. 2019 19:43

#	Modifying user name:	WinNT
#	Modification time:	15. 06. 2019 19:43

#	Program:	/corina/corina34_cracker 3.40 0067  02.08.2006

@<TRIPOS>MOLECULE
ASD01881706
  65   69    0    0    0
SMALL
NO_CHARGES


@<TRIPOS>ATOM
   1 N1             1.0254     1.9506     0.7590 N.am    
   2 C2             0.4050     1.7227    -0.5550 C.3     
   3 C3             1.4984     1.3031    -1.5433 C.3     
   4 N4             2.2343     0.1554    -0.9963 N.3     
   5 C5             2.9257     0.5108     0.2502 C.3     
   6 C6             1.8909     0.8978     1.3120 C.3     
   7 C7             0.8110     3.0963     1.4358 C.2     
   8 O8             0.0970     3.9576     0.9615 O.2     
   9 O9             1.3879     3.2864     2.6373 O.3     
  10 C10            3.1764    -0.3856    -1.9851 C.3     
  11 C11            4.3960     0.5329    -2.0833 C.3     
  12 C12            5.4409    -0.1032    -3.0023 C.3     
  13 O13            3.9984     1.7972    -2.6176 O.3     
  14 O14            6.6252     0.6965    -3.0024 O.3     
  15 N15           10.9362    -0.8096    -6.0274 N.pl3   
  16 N16           11.7595     0.2686    -5.6707 N.2     
  17 N17           11.1291     1.0366    -4.8538 N.2     
  18 C18            9.8942     0.5525    -4.6138 C.ar    
  19 C19            9.7479    -0.6320    -5.3563 C.ar    
  20 C20            8.8301     0.9966    -3.8168 C.ar    
  21 C21            7.6594     0.2679    -3.7744 C.ar    
  22 C22            7.5293    -0.9038    -4.5160 C.ar    
  23 C23            8.5587    -1.3497    -5.2963 C.ar    
  24 C24           11.2727    -1.9055    -6.9396 C.3     
  25 C25           11.9086    -3.0504    -6.1487 C.3     
  26 C26           12.2260    -4.3414    -6.9061 C.3     
  27 C27           13.3601    -3.4111    -6.4712 C.3     
  28 Br28           8.9978     2.5861    -2.8063 Br      
  29 C29            1.1126     4.5438     3.3092 C.3     
  30 C30            1.8378     4.5770     4.6298 C.ar    
  31 C31            3.1211     5.0860     4.7009 C.ar    
  32 C32            3.7864     5.1164     5.9123 C.ar    
  33 C33            3.1682     4.6383     7.0525 C.ar    
  34 C34            1.8846     4.1302     6.9815 C.ar    
  35 C35            1.2177     4.1038     5.7710 C.ar    
  36 H36           -0.3402     0.9312    -0.4756 H       
  37 H37           -0.0682     2.6416    -0.9009 H       
  38 H38            1.0424     1.0236    -2.4930 H       
  39 H39            2.1856     2.1346    -1.7000 H       
  40 H40            3.5049    -0.3433     0.6011 H       
  41 H41            3.5930     1.3533     0.0685 H       
  42 H42            2.4000     1.2715     2.2004 H       
  43 H43            1.2885     0.0271     1.5707 H       
  44 H44            3.4952    -1.3812    -1.6763 H       
  45 H45            2.6877    -0.4459    -2.9575 H       
  46 H46            4.8239     0.6761    -1.0911 H       
  47 H47            5.6787    -1.1047    -2.6436 H       
  48 H48            5.0441    -0.1650    -4.0156 H       
  49 H49            3.6081     1.7458    -3.5008 H       
  50 H50            6.6075    -1.4650    -4.4735 H       
  51 H51            8.4480    -2.2596    -5.8675 H       
  52 H52           10.3665    -2.2617    -7.4295 H       
  53 H53           11.9763    -1.5489    -7.6919 H       
  54 H54           11.5854    -3.1418    -5.1117 H       
  55 H55           12.1120    -5.2820    -6.3672 H       
  56 H56           11.9817    -4.3750    -7.9678 H       
  57 H57           13.8620    -2.8326    -7.2468 H       
  58 H58           13.9922    -3.7397    -5.6462 H       
  59 H59            1.4537     5.3708     2.6864 H       
  60 H60            0.0402     4.6367     3.4811 H       
  61 H61            3.6041     5.4595     3.8101 H       
  62 H62            4.7892     5.5134     5.9678 H       
  63 H63            3.6883     4.6615     7.9988 H       
  64 H64            1.4018     3.7564     7.8723 H       
  65 H65            0.2135     3.7102     5.7162 H       
@<TRIPOS>BOND
   1    1    2 1
   2    1    6 1
   3    1    7 am
   4    2    3 1
   5    2   36 1
   6    2   37 1
   7    3    4 1
   8    3   38 1
   9    3   39 1
  10    4    5 1
  11    4   10 1
  12    5    6 1
  13    5   40 1
  14    5   41 1
  15    6   42 1
  16    6   43 1
  17    7    8 2
  18    7    9 1
  19    9   29 1
  20   10   11 1
  21   10   44 1
  22   10   45 1
  23   11   12 1
  24   11   13 1
  25   11   46 1
  26   12   14 1
  27   12   47 1
  28   12   48 1
  29   13   49 1
  30   14   21 1
  31   15   16 1
  32   15   19 1
  33   15   24 1
  34   16   17 2
  35   17   18 1
  36   18   19 ar
  37   18   20 ar
  38   19   23 ar
  39   20   21 ar
  40   20   28 1
  41   21   22 ar
  42   22   23 ar
  43   22   50 1
  44   23   51 1
  45   24   25 1
  46   24   52 1
  47   24   53 1
  48   25   26 1
  49   25   27 1
  50   25   54 1
  51   26   27 1
  52   26   55 1
  53   26   56 1
  54   27   57 1
  55   27   58 1
  56   29   30 1
  57   29   59 1
  58   29   60 1
  59   30   31 ar
  60   30   35 ar
  61   31   32 ar
  62   31   61 1
  63   32   33 ar
  64   32   62 1
  65   33   34 ar
  66   33   63 1
  67   34   35 ar
  68   34   64 1
  69   35   65 1

#	End of record

