#	Name: ASD01230114
#	Creating user name:	WinNT
#	Creation time:	15. 06. 2019 19:11

#	Modifying user name:	WinNT
#	Modification time:	15. 06. 2019 19:11

#	Program:	/corina/corina34_cracker 3.40 0067  02.08.2006

@<TRIPOS>MOLECULE
ASD01230114
  59   63    0    0    0
SMALL
NO_CHARGES


@<TRIPOS>ATOM
   1 C1            -0.0157     1.3548     0.2039 C.2     
   2 C2             0.0011     0.0323    -0.0943 C.2     
   3 C3            -1.1869    -0.8320    -0.2943 C.ar    
   4 C4            -1.1715    -1.8682    -1.2335 C.ar    
   5 N5             1.2874     1.7657     0.2786 N.pl3   
   6 C6             2.0695     0.6749     0.0525 C.2     
   7 N7             1.2889    -0.3580    -0.1771 N.2     
   8 C8            -2.3512    -0.6370     0.4549 C.ar    
   9 C9            -3.4333    -1.4642     0.2370 C.ar    
  10 N10           -3.3789    -2.4279    -0.6626 N.ar    
  11 C11           -2.2980    -2.6484    -1.3872 C.ar    
  12 C12            3.5479     0.6547     0.0637 C.ar    
  13 C13            4.2290    -0.4977     0.4601 C.ar    
  14 C14           -4.6944    -1.2650     1.0377 C.3     
  15 C15            4.2660     1.7858    -0.3273 C.ar    
  16 C16            5.6443     1.7630    -0.3160 C.ar    
  17 C17            6.3182     0.6165     0.0835 C.ar    
  18 C18            5.6070    -0.5128     0.4688 C.ar    
  19 C19           -1.2185     2.2295     0.4380 C.3     
  20 C20           -0.8551     3.6775     0.0945 C.3     
  21 O21           -0.2770     4.3088     1.2364 O.3     
  22 C22            0.9268     3.7079     1.7117 C.3     
  23 C23            1.7235     3.1405     0.5335 C.3     
  24 O24            7.6765     0.5976     0.0929 O.3     
  25 C25            6.3433    -1.7545     0.9014 C.3     
  26 C26           -2.2968    -3.7645    -2.3998 C.3     
  27 C27            8.3449     1.7423    -0.4410 C.3     
  28 C28            1.7691     4.7602     2.4356 C.3     
  29 C29            9.6519     2.1729     0.2278 C.3     
  30 C30            9.6799     1.5128    -1.1523 C.3     
  31 F31           -5.5361    -0.3710     0.3672 F       
  32 H32           -0.2905    -2.0543    -1.8297 H       
  33 H33           -2.4024     0.1493     1.1934 H       
  34 H34            3.6768    -1.3761     0.7598 H       
  35 H35           -5.2029    -2.2215     1.1587 H       
  36 H36           -4.4423    -0.8609     2.0181 H       
  37 H37            3.7425     2.6776    -0.6388 H       
  38 H38            6.2006     2.6378    -0.6185 H       
  39 H39           -2.0396     1.8986    -0.1980 H       
  40 H40           -1.5173     2.1666     1.4844 H       
  41 H41           -0.1389     3.6869    -0.7271 H       
  42 H42           -1.7546     4.2169    -0.2021 H       
  43 H43            0.6811     2.9028     2.4043 H       
  44 H44            2.7863     3.1468     0.7754 H       
  45 H45            1.5466     3.7494    -0.3531 H       
  46 H46            6.5151    -1.7188     1.9772 H       
  47 H47            5.7471    -2.6339     0.6577 H       
  48 H48            7.3002    -1.8090     0.3823 H       
  49 H49           -2.6442    -3.3839    -3.3603 H       
  50 H50           -1.2852    -4.1556    -2.5083 H       
  51 H51           -2.9603    -4.5612    -2.0633 H       
  52 H52            7.6958     2.5271    -0.8292 H       
  53 H53            1.2050     5.1606     3.2780 H       
  54 H54            2.6890     4.3022     2.7991 H       
  55 H55            2.0135     5.5677     1.7454 H       
  56 H56            9.8628     3.2410     0.2791 H       
  57 H57           10.0019     1.5831     1.0749 H       
  58 H58           10.0484     0.4888    -1.2130 H       
  59 H59            9.9093     2.1467    -2.0088 H       
@<TRIPOS>BOND
   1    1    2 2
   2    1    5 1
   3    1   19 1
   4    2    3 1
   5    2    7 1
   6    3    4 ar
   7    3    8 ar
   8    4   11 ar
   9    4   32 1
  10    5    6 1
  11    5   23 1
  12    6    7 2
  13    6   12 1
  14    8    9 ar
  15    8   33 1
  16    9   10 ar
  17    9   14 1
  18   10   11 ar
  19   11   26 1
  20   12   15 ar
  21   12   13 ar
  22   13   18 ar
  23   13   34 1
  24   14   31 1
  25   14   35 1
  26   14   36 1
  27   15   16 ar
  28   15   37 1
  29   16   17 ar
  30   16   38 1
  31   17   18 ar
  32   17   24 1
  33   18   25 1
  34   19   20 1
  35   19   39 1
  36   19   40 1
  37   20   21 1
  38   20   41 1
  39   20   42 1
  40   21   22 1
  41   22   23 1
  42   22   28 1
  43   22   43 1
  44   23   44 1
  45   23   45 1
  46   24   27 1
  47   25   46 1
  48   25   47 1
  49   25   48 1
  50   26   49 1
  51   26   50 1
  52   26   51 1
  53   27   29 1
  54   27   30 1
  55   27   52 1
  56   28   53 1
  57   28   54 1
  58   28   55 1
  59   29   30 1
  60   29   56 1
  61   29   57 1
  62   30   58 1
  63   30   59 1

#	End of record

