#	Name: ASD01410399
#	Creating user name:	WinNT
#	Creation time:	15. 06. 2019 19:17

#	Modifying user name:	WinNT
#	Modification time:	15. 06. 2019 19:17

#	Program:	/corina/corina34_cracker 3.40 0067  02.08.2006

@<TRIPOS>MOLECULE
ASD01410399
  39   41    0    0    0
SMALL
NO_CHARGES


@<TRIPOS>ATOM
   1 S1             0.0630     1.7572    -0.6295 S.3     
   2 C2             0.1489     0.0042    -0.8748 C.2     
   3 N3             1.4268    -0.3513    -0.7008 N.am    
   4 C4             2.3259     0.5722    -0.4039 C.2     
   5 C5             1.7966     1.9386    -0.2948 C.2     
   6 O6             3.5020     0.3102    -0.2341 O.2     
   7 S7            -1.1550    -1.0361    -1.2601 S.2     
   8 C8             2.4760     3.0761    -0.0054 C.2     
   9 C9             1.8029     4.3793    -0.1029 C.ar    
  10 C10            2.3154     5.4886     0.5792 C.ar    
  11 C11            1.6785     6.7072     0.4822 C.ar    
  12 C12            0.5349     6.8355    -0.2874 C.ar    
  13 C13            0.0216     5.7434    -0.9651 C.ar    
  14 C14            0.6497     4.5187    -0.8828 C.ar    
  15 N15            1.8100    -1.6925    -0.8317 N.am    
  16 S16            2.2849    -2.2778    -2.3062 S.o2    
  17 O17            2.7486    -3.6022    -2.0818 O.2     
  18 O18            1.2410    -1.9639    -3.2177 O.2     
  19 C19            3.6872    -1.3389    -2.8130 C.ar    
  20 C20            4.9593    -1.7553    -2.4678 C.ar    
  21 C21            6.0594    -1.0187    -2.8654 C.ar    
  22 C22            5.8873     0.1341    -3.6086 C.ar    
  23 C23            4.6153     0.5500    -3.9546 C.ar    
  24 C24            3.5154    -0.1890    -3.5607 C.ar    
  25 C25           -1.2242     5.8945    -1.7996 C.3     
  26 H26            3.5116     3.0245     0.2966 H       
  27 H27            3.2072     5.3901     1.1803 H       
  28 H28            2.0725     7.5642     1.0083 H       
  29 H29            0.0403     7.7929    -0.3590 H       
  30 H30            0.2502     3.6684    -1.4156 H       
  31 H31            1.7971    -2.2783    -0.0586 H       
  32 H32            5.0937    -2.6560    -1.8871 H       
  33 H33            7.0532    -1.3436    -2.5950 H       
  34 H34            6.7468     0.7100    -3.9186 H       
  35 H35            4.4809     1.4508    -4.5350 H       
  36 H36            2.5216     0.1359    -3.8311 H       
  37 H37           -0.9483     6.1673    -2.8182 H       
  38 H38           -1.7702     4.9512    -1.8114 H       
  39 H39           -1.8551     6.6742    -1.3728 H       
@<TRIPOS>BOND
   1    1    2 1
   2    1    5 1
   3    2    3 am
   4    2    7 2
   5    3    4 am
   6    3   15 1
   7    4    5 1
   8    4    6 2
   9    5    8 2
  10    8    9 1
  11    8   26 1
  12    9   10 ar
  13    9   14 ar
  14   10   11 ar
  15   10   27 1
  16   11   12 ar
  17   11   28 1
  18   12   13 ar
  19   12   29 1
  20   13   14 ar
  21   13   25 1
  22   14   30 1
  23   15   16 am
  24   15   31 1
  25   16   17 2
  26   16   18 2
  27   16   19 1
  28   19   20 ar
  29   19   24 ar
  30   20   21 ar
  31   20   32 1
  32   21   22 ar
  33   21   33 1
  34   22   23 ar
  35   22   34 1
  36   23   24 ar
  37   23   35 1
  38   24   36 1
  39   25   37 1
  40   25   38 1
  41   25   39 1

#	End of record

