#	Name: ASD02560078
#	Creating user name:	WinNT
#	Creation time:	15. 06. 2019 20:24

#	Modifying user name:	WinNT
#	Modification time:	15. 06. 2019 20:24

#	Program:	/corina/corina34_cracker 3.40 0067  02.08.2006

@<TRIPOS>MOLECULE
ASD02560078
  56   58    0    0    0
SMALL
NO_CHARGES


@<TRIPOS>ATOM
   1 C1            -3.2571     2.9364     3.5587 C.ar    
   2 C2            -2.0713     3.6733     3.5063 C.ar    
   3 C3            -1.4387     3.8852     2.2957 C.ar    
   4 C4            -1.9734     3.3702     1.1307 C.ar    
   5 C5            -3.1591     2.6314     1.1694 C.ar    
   6 C6            -3.7991     2.4097     2.3876 C.ar    
   7 C7            -3.7303     2.0815    -0.0781 C.2     
   8 C8            -4.9265     1.2215    -0.0248 C.ar    
   9 O9            -3.2134     2.3384    -1.1483 O.2     
  10 C10           -4.8063    -0.1613    -0.1901 C.ar    
  11 C11           -5.9294    -0.9595    -0.1391 C.ar    
  12 C12           -7.1782    -0.3966     0.0751 C.ar    
  13 C13           -7.3107     0.9682     0.2395 C.ar    
  14 C14           -6.1916     1.7856     0.1979 C.ar    
  15 O15           -6.3209     3.1263     0.3597 O.3     
  16 C16           -7.6415     3.6301     0.5695 C.3     
  17 C17           -7.5886     5.1279     0.7272 C.2     
  18 N18           -8.7236     5.8240     0.9363 N.am    
  19 C19           -8.6652     7.2007     1.1798 C.ar    
  20 C20           -7.6870     7.9743     0.5694 C.ar    
  21 C21           -7.6320     9.3330     0.8119 C.ar    
  22 C22           -8.5494     9.9228     1.6617 C.ar    
  23 C23           -9.5250     9.1550     2.2712 C.ar    
  24 C24           -9.5892     7.7971     2.0281 C.ar    
  25 O25           -6.5247     5.7069     0.6660 O.2     
  26 Cl26           0.0339     4.8028     2.2390 Cl      
  27 Cl27          -5.7792    -2.6768    -0.3445 Cl      
  28 C28          -10.6525     6.9613     2.6927 C.3     
  29 S29           -8.4751    11.6561     1.9693 S.o2    
  30 N30           -9.4221    12.3971     0.8307 N.am    
  31 O31           -9.1123    11.8691     3.2214 O.2     
  32 O32           -7.1380    12.0545     1.7000 O.2     
  33 C33          -10.7523    12.1805     0.8160 C.2     
  34 C34          -11.6141    12.8548    -0.2202 C.3     
  35 O35          -11.2557    11.4430     1.6367 O.2     
  36 C36           -3.9113     2.7178     4.8136 C.1     
  37 N37           -4.4302     2.5443     5.8092 N.1     
  38 H38           -1.6481     4.0785     4.4136 H       
  39 H39           -1.4744     3.5392     0.1879 H       
  40 H40           -4.7155     1.8394     2.4228 H       
  41 H41           -3.8354    -0.6036    -0.3578 H       
  42 H42           -8.0527    -1.0292     0.1133 H       
  43 H43           -8.2871     1.3989     0.4056 H       
  44 H44           -8.2672     3.3767    -0.2863 H       
  45 H45           -8.0615     3.1844     1.4712 H       
  46 H46           -9.5810     5.3706     0.9179 H       
  47 H47           -6.9696     7.5141    -0.0940 H       
  48 H48           -6.8714     9.9353     0.3375 H       
  49 H49          -10.2399     9.6186     2.9348 H       
  50 H50          -11.5395     6.9315     2.0599 H       
  51 H51          -10.2783     5.9484     2.8415 H       
  52 H52          -10.9089     7.3993     3.6573 H       
  53 H53           -9.0195    12.9869     0.1743 H       
  54 H54          -11.6850    12.2194    -1.1031 H       
  55 H55          -12.6108    13.0212     0.1886 H       
  56 H56          -11.1700    13.8113    -0.4956 H       
@<TRIPOS>BOND
   1    1    2 ar
   2    1   36 1
   3    1    6 ar
   4    2    3 ar
   5    2   38 1
   6    3    4 ar
   7    3   26 1
   8    4    5 ar
   9    4   39 1
  10    5    6 ar
  11    5    7 1
  12    6   40 1
  13    7    8 1
  14    7    9 2
  15    8   10 ar
  16    8   14 ar
  17   10   11 ar
  18   10   41 1
  19   11   12 ar
  20   11   27 1
  21   12   13 ar
  22   12   42 1
  23   13   14 ar
  24   13   43 1
  25   14   15 1
  26   15   16 1
  27   16   17 1
  28   16   44 1
  29   16   45 1
  30   17   18 am
  31   17   25 2
  32   18   19 1
  33   18   46 1
  34   19   20 ar
  35   19   24 ar
  36   20   21 ar
  37   20   47 1
  38   21   22 ar
  39   21   48 1
  40   22   23 ar
  41   22   29 1
  42   23   24 ar
  43   23   49 1
  44   24   28 1
  45   28   50 1
  46   28   51 1
  47   28   52 1
  48   29   30 am
  49   29   31 2
  50   29   32 2
  51   30   33 am
  52   30   53 1
  53   33   34 1
  54   33   35 2
  55   34   54 1
  56   34   55 1
  57   34   56 1
  58   36   37 3

#	End of record

