#	Name: ASD01840309
#	Creating user name:	WinNT
#	Creation time:	15. 06. 2019 19:37

#	Modifying user name:	WinNT
#	Modification time:	15. 06. 2019 19:37

#	Program:	/corina/corina34_cracker 3.40 0067  02.08.2006

@<TRIPOS>MOLECULE
ASD01840309
  63   67    0    0    0
SMALL
NO_CHARGES


@<TRIPOS>ATOM
   1 C1            -1.9828    -1.7982    -0.2039 C.3     
   2 C2            -2.2263    -2.3091     1.2176 C.3     
   3 N3            -1.0145    -2.1200     2.0188 N.am    
   4 C4             0.0780    -3.0895     2.1582 C.3     
   5 H5             0.5255    -3.2920     1.1851 H       
   6 C6            -0.4465    -4.3874     2.7755 C.3     
   7 O7            -0.8908    -4.1347     4.1100 O.3     
   8 C8             1.0944    -2.4516     3.0741 C.ar    
   9 N9             2.2545    -2.8520     3.5432 N.ar    
  10 C10            2.9763    -2.0870     4.3529 C.ar    
  11 N11            4.1936    -2.5494     4.8237 N.3     
  12 C12            4.0065    -3.6685     5.7559 C.3     
  13 C13            5.3554    -4.0573     6.3655 C.3     
  14 C14            6.3198    -4.4573     5.2455 C.3     
  15 C15            6.4595    -3.2917     4.2624 C.3     
  16 C16            5.0787    -2.9251     3.7138 C.3     
  17 O17            7.5982    -4.7668     5.8040 O.3     
  18 C18            8.4063    -5.5848     5.0796 C.ar    
  19 C19            9.6482    -5.9519     5.5769 C.ar    
  20 C20           10.4692    -6.7844     4.8393 C.ar    
  21 C21           10.0532    -7.2497     3.6088 C.ar    
  22 C22           10.7008    -8.1510     2.5834 C.3     
  23 O23            9.6369    -8.6029     1.7256 O.3     
  24 C24            8.6572    -7.5490     1.7618 C.3     
  25 C25            8.8120    -6.8841     3.1097 C.ar    
  26 C26            7.9876    -6.0585     3.8437 C.ar    
  27 C27            2.5262    -0.8248     4.7353 C.ar    
  28 C28            3.3582     0.0319     5.6545 C.3     
  29 C29            1.3221    -0.3692     4.2688 C.ar    
  30 C30            0.8065     0.9907     4.6636 C.3     
  31 C31            0.5803    -1.1981     3.4154 C.ar    
  32 C32           -0.7170    -1.0272     2.7430 C.2     
  33 O33           -1.4208    -0.0397     2.8317 O.2     
  34 H34           -1.1597    -2.3535    -0.6535 H       
  35 H35           -2.8845    -1.9389    -0.8000 H       
  36 H36           -1.7308    -0.7382    -0.1709 H       
  37 H37           -3.0495    -1.7537     1.6672 H       
  38 H38           -2.4783    -3.3690     1.1845 H       
  39 H39           -1.2791    -4.7624     2.1803 H       
  40 H40            0.3513    -5.1299     2.7927 H       
  41 H41           -1.2372    -4.9152     4.5637 H       
  42 H42            3.3220    -3.3695     6.5496 H       
  43 H43            3.5907    -4.5219     5.2202 H       
  44 H44            5.7654    -3.2086     6.9130 H       
  45 H45            5.2186    -4.8981     7.0455 H       
  46 H46            5.9288    -5.3300     4.7225 H       
  47 H47            6.8869    -2.4310     4.7769 H       
  48 H48            7.1117    -3.5855     3.4399 H       
  49 H49            4.6578    -3.7819     3.1876 H       
  50 H50            5.1728    -2.0862     3.0243 H       
  51 H51            9.9737    -5.5872     6.5399 H       
  52 H52           11.4362    -7.0702     5.2260 H       
  53 H53           11.4379    -7.5934     2.0056 H       
  54 H54           11.1732    -9.0011     3.0755 H       
  55 H55            8.8486    -6.8308     0.9645 H       
  56 H56            7.6546    -7.9647     1.6609 H       
  57 H57            7.0195    -5.7775     3.4562 H       
  58 H58            3.9622     0.7195     5.0626 H       
  59 H59            2.7023     0.6000     6.3143 H       
  60 H60            4.0117    -0.6041     6.2516 H       
  61 H61            1.1542     1.7336     3.9458 H       
  62 H62           -0.2834     0.9772     4.6733 H       
  63 H63            1.1756     1.2449     5.6572 H       
@<TRIPOS>BOND
   1    1    2 1
   2    1   34 1
   3    1   35 1
   4    1   36 1
   5    2    3 1
   6    2   37 1
   7    2   38 1
   8    3   32 am
   9    3    4 1
  10    4    5 1
  11    4    6 1
  12    4    8 1
  13    6    7 1
  14    6   39 1
  15    6   40 1
  16    7   41 1
  17    8   31 ar
  18    8    9 ar
  19    9   10 ar
  20   10   11 1
  21   10   27 ar
  22   11   16 1
  23   11   12 1
  24   12   13 1
  25   12   42 1
  26   12   43 1
  27   13   14 1
  28   13   44 1
  29   13   45 1
  30   14   15 1
  31   14   17 1
  32   14   46 1
  33   15   16 1
  34   15   47 1
  35   15   48 1
  36   16   49 1
  37   16   50 1
  38   17   18 1
  39   18   26 ar
  40   18   19 ar
  41   19   20 ar
  42   19   51 1
  43   20   21 ar
  44   20   52 1
  45   21   25 ar
  46   21   22 1
  47   22   23 1
  48   22   53 1
  49   22   54 1
  50   23   24 1
  51   24   25 1
  52   24   55 1
  53   24   56 1
  54   25   26 ar
  55   26   57 1
  56   27   28 1
  57   27   29 ar
  58   28   58 1
  59   28   59 1
  60   28   60 1
  61   29   30 1
  62   29   31 ar
  63   30   61 1
  64   30   62 1
  65   30   63 1
  66   31   32 1
  67   32   33 2

#	End of record

