#	Name: ASD01151056
#	Creating user name:	WinNT
#	Creation time:	15. 06. 2019 19:05

#	Modifying user name:	WinNT
#	Modification time:	15. 06. 2019 19:05

#	Program:	/corina/corina34_cracker 3.40 0067  02.08.2006

@<TRIPOS>MOLECULE
ASD01151056
  52   54    0    0    0
SMALL
NO_CHARGES


@<TRIPOS>ATOM
   1 O1            -0.9868     0.7564     1.5884 O.2     
   2 C2            -0.2559     1.3362     2.3678 C.2     
   3 C3             1.1231     1.6869     1.9667 C.ar    
   4 C4             1.9643     2.3526     2.8599 C.ar    
   5 C5             3.2513     2.6790     2.4829 C.ar    
   6 C6             3.7118     2.3494     1.2221 C.ar    
   7 C7             2.8818     1.6869     0.3251 C.ar    
   8 C8             1.5898     1.3487     0.6963 C.ar    
   9 N9             3.3524     1.3564    -0.9500 N.am    
  10 C10            4.5366     1.8378    -1.3770 C.2     
  11 O11            5.1165     2.6875    -0.7293 O.2     
  12 C12            5.1304     1.3324    -2.6328 C.ar    
  13 C13            6.5174     1.2747    -2.7789 C.ar    
  14 C14            7.0650     0.8016    -3.9534 C.ar    
  15 C15            6.2427     0.3848    -4.9851 C.ar    
  16 C16            4.8671     0.4394    -4.8468 C.ar    
  17 C17            4.3065     0.9054    -3.6756 C.ar    
  18 C18            2.5579     0.4871    -1.8214 C.3     
  19 N19           -0.7045     1.6640     3.5957 N.am    
  20 C20           -2.0268     1.3820     3.9558 C.ar    
  21 C21           -2.3709     0.1125     4.4036 C.ar    
  22 Br22          -1.0524    -1.2373     4.5274 Br      
  23 C23           -3.6779    -0.1624     4.7588 C.ar    
  24 C24           -4.6427     0.8242     4.6690 C.ar    
  25 C25           -4.3039     2.0886     4.2233 C.ar    
  26 C26           -2.9978     2.3722     3.8718 C.ar    
  27 Br27          -2.5358     4.1017     3.2625 Br      
  28 C28           -6.0668     0.5205     5.0573 C.3     
  29 C29           -6.8586     1.8261     5.1537 C.3     
  30 F30           -6.9574     2.4064     3.8846 F       
  31 F31           -8.1408     1.5587     5.6453 F       
  32 F32           -6.2016     2.7071     6.0194 F       
  33 C33           -6.7019    -0.3843     3.9995 C.3     
  34 F34           -5.9779    -1.5781     3.9114 F       
  35 F35           -8.0240    -0.6662     4.3600 F       
  36 F36           -6.6847     0.2642     2.7600 F       
  37 F37           -6.0840    -0.1280     6.2968 F       
  38 H38            1.6080     2.6126     3.8457 H       
  39 H39            3.9006     3.1941     3.1753 H       
  40 H40            4.7197     2.6078     0.9328 H       
  41 H41            0.9435     0.8339     0.0009 H       
  42 H42            7.1604     1.6001    -1.9745 H       
  43 H43            8.1380     0.7568    -4.0679 H       
  44 H44            6.6765     0.0156    -5.9027 H       
  45 H45            4.2308     0.1128    -5.6561 H       
  46 H46            3.2326     0.9471    -3.5687 H       
  47 H47            2.2062     1.0578    -2.6809 H       
  48 H48            3.1738    -0.3441    -2.1646 H       
  49 H49            1.7025     0.1009    -1.2671 H       
  50 H50           -0.1107     2.0956     4.2298 H       
  51 H51           -3.9462    -1.1490     5.1067 H       
  52 H52           -5.0601     2.8565     4.1538 H       
@<TRIPOS>BOND
   1    1    2 2
   2    2    3 1
   3    2   19 am
   4    3    4 ar
   5    3    8 ar
   6    4    5 ar
   7    4   38 1
   8    5    6 ar
   9    5   39 1
  10    6    7 ar
  11    6   40 1
  12    7    8 ar
  13    7    9 1
  14    8   41 1
  15    9   10 am
  16    9   18 1
  17   10   11 2
  18   10   12 1
  19   12   13 ar
  20   12   17 ar
  21   13   14 ar
  22   13   42 1
  23   14   15 ar
  24   14   43 1
  25   15   16 ar
  26   15   44 1
  27   16   17 ar
  28   16   45 1
  29   17   46 1
  30   18   47 1
  31   18   48 1
  32   18   49 1
  33   19   20 1
  34   19   50 1
  35   20   21 ar
  36   20   26 ar
  37   21   22 1
  38   21   23 ar
  39   23   24 ar
  40   23   51 1
  41   24   25 ar
  42   24   28 1
  43   25   26 ar
  44   25   52 1
  45   26   27 1
  46   28   29 1
  47   28   33 1
  48   28   37 1
  49   29   30 1
  50   29   31 1
  51   29   32 1
  52   33   34 1
  53   33   35 1
  54   33   36 1

#	End of record

