#	Name: ASD01918395
#	Creating user name:	WinNT
#	Creation time:	15. 06. 2019 20:11

#	Modifying user name:	WinNT
#	Modification time:	15. 06. 2019 20:11

#	Program:	/corina/corina34_cracker 3.40 0067  02.08.2006

@<TRIPOS>MOLECULE
ASD01918395
  37   39    0    0    0
SMALL
NO_CHARGES


@<TRIPOS>ATOM
   1 C1            -0.0181     1.3802     0.0163 C.ar    
   2 C2             0.0008    -0.0023     0.0031 C.ar    
   3 C3             1.2061    -0.6798    -0.0182 C.ar    
   4 C4             2.3950     0.0232    -0.0263 C.ar    
   5 C5             2.3791     1.4113    -0.0130 C.ar    
   6 C6             1.1675     2.0887     0.0084 C.ar    
   7 N7             3.5844     2.1277    -0.0207 N.pl3   
   8 C8             4.5006     2.1493    -1.0271 C.2     
   9 N9             5.4903     2.9214    -0.6830 N.2     
  10 C10            5.2497     3.4249     0.5547 C.2     
  11 C11            4.0480     2.9325     0.9744 C.2     
  12 C12            4.3874     1.4002    -2.3298 C.3     
  13 C13            3.3697     3.2173     2.2897 C.3     
  14 C14            6.1246     4.3406     1.3061 C.2     
  15 N15            7.2883     4.7549     0.7670 N.am    
  16 O16            5.7969     4.7232     2.4131 O.2     
  17 C17            8.0620     5.7011     1.4276 C.ar    
  18 C18            9.3174     6.0587     0.9350 C.ar    
  19 N19            7.6154     6.2838     2.5358 N.ar    
  20 C20            8.3470     7.1822     3.1656 C.ar    
  21 N21            9.5398     7.5377     2.7283 N.ar    
  22 C22           10.0494     7.0046     1.6275 C.ar    
  23 Cl23           7.7231     7.9177     4.6090 Cl      
  24 H24           -0.9611     1.9067     0.0284 H       
  25 H25           -0.9275    -0.5541     0.0098 H       
  26 H26            1.2178    -1.7597    -0.0281 H       
  27 H27            3.3360    -0.5065    -0.0425 H       
  28 H28            1.1521     3.1685     0.0183 H       
  29 H29            3.8788     2.0242    -3.0647 H       
  30 H30            5.3842     1.1502    -2.6931 H       
  31 H31            3.8172     0.4844    -2.1739 H       
  32 H32            2.7290     4.0930     2.1859 H       
  33 H33            2.7660     2.3578     2.5808 H       
  34 H34            4.1236     3.4072     3.0537 H       
  35 H35            7.5856     4.3924    -0.0821 H       
  36 H36            9.7078     5.6072     0.0349 H       
  37 H37           11.0271     7.3022     1.2781 H       
@<TRIPOS>BOND
   1    1    2 ar
   2    1    6 ar
   3    1   24 1
   4    2    3 ar
   5    2   25 1
   6    3    4 ar
   7    3   26 1
   8    4    5 ar
   9    4   27 1
  10    5    6 ar
  11    5    7 1
  12    6   28 1
  13    7    8 1
  14    7   11 1
  15    8    9 2
  16    8   12 1
  17    9   10 1
  18   10   11 2
  19   10   14 1
  20   11   13 1
  21   12   29 1
  22   12   30 1
  23   12   31 1
  24   13   32 1
  25   13   33 1
  26   13   34 1
  27   14   15 am
  28   14   16 2
  29   15   17 1
  30   15   35 1
  31   17   18 ar
  32   17   19 ar
  33   18   22 ar
  34   18   36 1
  35   19   20 ar
  36   20   21 ar
  37   20   23 1
  38   21   22 ar
  39   22   37 1

#	End of record

