#	Name: ASD02560075
#	Creating user name:	WinNT
#	Creation time:	15. 06. 2019 20:24

#	Modifying user name:	WinNT
#	Modification time:	15. 06. 2019 20:24

#	Program:	/corina/corina34_cracker 3.40 0067  02.08.2006

@<TRIPOS>MOLECULE
ASD02560075
  67   69    0    0    0
SMALL
NO_CHARGES


@<TRIPOS>ATOM
   1 C1             5.0794     1.8929    -3.7612 C.ar    
   2 C2             4.9974     0.5094    -3.6505 C.ar    
   3 C3             4.5627    -0.0725    -2.4649 C.ar    
   4 C4             4.2110     0.7197    -1.3955 C.ar    
   5 C5             4.2919     2.1115    -1.5026 C.ar    
   6 C6             4.7301     2.6925    -2.6965 C.ar    
   7 C7             3.9156     2.9646    -0.3591 C.2     
   8 C8             4.1120     4.4243    -0.4321 C.ar    
   9 O9             3.4433     2.4639     0.6437 O.2     
  10 C10            3.0181     5.2720    -0.6266 C.ar    
  11 C11            3.2087     6.6350    -0.6939 C.ar    
  12 C12            4.4805     7.1701    -0.5696 C.ar    
  13 C13            5.5707     6.3442    -0.3775 C.ar    
  14 C14            5.3973     4.9708    -0.3010 C.ar    
  15 O15            6.4671     4.1584    -0.1120 O.3     
  16 C16            7.7462     4.7856     0.0002 C.3     
  17 C17            8.8054     3.7333     0.2050 C.2     
  18 N18           10.0971     4.0943     0.3377 N.am    
  19 C19           11.0672     3.1285     0.6365 C.ar    
  20 C20           10.9547     1.8466     0.1153 C.ar    
  21 C21           11.9111     0.8952     0.4103 C.ar    
  22 C22           12.9842     1.2201     1.2272 C.ar    
  23 C23           13.0972     2.5007     1.7483 C.ar    
  24 C24           12.1445     3.4547     1.4494 C.ar    
  25 O25            8.4954     2.5616     0.2504 O.2     
  26 O26            5.3423    -0.2752    -4.7026 O.3     
  27 C27            5.2344    -1.6884    -4.5208 C.3     
  28 O28           13.9254     0.2828     1.5176 O.3     
  29 C29           15.0030     0.6863     2.3649 C.3     
  30 C30           15.9540    -0.4933     2.5772 C.3     
  31 N31           16.5796    -0.8544     1.2981 N.3     
  32 C32           17.4583     0.2211     0.8197 C.3     
  33 C33           17.7741     0.0010    -0.6611 C.3     
  34 C34           17.3126    -2.1225     1.4100 C.3     
  35 C35           16.3218    -3.2661     1.6367 C.3     
  36 H36            5.4218     2.3408    -4.6824 H       
  37 H37            4.5005    -1.1476    -2.3831 H       
  38 H38            3.8727     0.2669    -0.4752 H       
  39 H39            4.7940     3.7671    -2.7833 H       
  40 H40            2.0248     4.8594    -0.7243 H       
  41 H41            2.3627     7.2893    -0.8445 H       
  42 H42            4.6204     8.2397    -0.6236 H       
  43 H43            6.5590     6.7692    -0.2823 H       
  44 H44            7.9590     5.3426    -0.9122 H       
  45 H45            7.7429     5.4681     0.8501 H       
  46 H46           10.3552     5.0227     0.2263 H       
  47 H47           10.1191     1.5934    -0.5204 H       
  48 H48           11.8235    -0.1021     0.0052 H       
  49 H49           13.9327     2.7529     2.3845 H       
  50 H50           12.2328     4.4518     1.8549 H       
  51 H51            5.8801    -1.9994    -3.6995 H       
  52 H52            4.2013    -1.9471    -4.2887 H       
  53 H53            5.5396    -2.1968    -5.4354 H       
  54 H54           15.5438     1.5094     1.8978 H       
  55 H55           14.6068     1.0113     3.3269 H       
  56 H56           16.7266    -0.2129     3.2932 H       
  57 H57           15.3947    -1.3463     2.9618 H       
  58 H58           16.9587     1.1816     0.9457 H       
  59 H59           18.3850     0.2155     1.3935 H       
  60 H60           18.1976    -0.9940    -0.7983 H       
  61 H61           16.8581     0.0897    -1.2451 H       
  62 H62           18.4918     0.7504    -0.9949 H       
  63 H63           17.8705    -2.3021     0.4910 H       
  64 H64           18.0045    -2.0693     2.2505 H       
  65 H65           15.7110    -3.0492     2.5131 H       
  66 H66           15.6791    -3.3688     0.7623 H       
  67 H67           16.8693    -4.1950     1.7963 H       
@<TRIPOS>BOND
   1    1    2 ar
   2    1    6 ar
   3    1   36 1
   4    2    3 ar
   5    2   26 1
   6    3    4 ar
   7    3   37 1
   8    4    5 ar
   9    4   38 1
  10    5    6 ar
  11    5    7 1
  12    6   39 1
  13    7    8 1
  14    7    9 2
  15    8   10 ar
  16    8   14 ar
  17   10   11 ar
  18   10   40 1
  19   11   12 ar
  20   11   41 1
  21   12   13 ar
  22   12   42 1
  23   13   14 ar
  24   13   43 1
  25   14   15 1
  26   15   16 1
  27   16   17 1
  28   16   44 1
  29   16   45 1
  30   17   18 am
  31   17   25 2
  32   18   19 1
  33   18   46 1
  34   19   20 ar
  35   19   24 ar
  36   20   21 ar
  37   20   47 1
  38   21   22 ar
  39   21   48 1
  40   22   23 ar
  41   22   28 1
  42   23   24 ar
  43   23   49 1
  44   24   50 1
  45   26   27 1
  46   27   51 1
  47   27   52 1
  48   27   53 1
  49   28   29 1
  50   29   30 1
  51   29   54 1
  52   29   55 1
  53   30   31 1
  54   30   56 1
  55   30   57 1
  56   31   32 1
  57   31   34 1
  58   32   33 1
  59   32   58 1
  60   32   59 1
  61   33   60 1
  62   33   61 1
  63   33   62 1
  64   34   35 1
  65   34   63 1
  66   34   64 1
  67   35   65 1
  68   35   66 1
  69   35   67 1

#	End of record

