#	Name: ASD08178044
#	Creating user name:	WinNT
#	Creation time:	15. 06. 2019 21:18

#	Modifying user name:	WinNT
#	Modification time:	15. 06. 2019 21:18

#	Program:	/corina/corina34_cracker 3.40 0067  02.08.2006

@<TRIPOS>MOLECULE
ASD08178044
  59   62    0    0    0
SMALL
NO_CHARGES


@<TRIPOS>ATOM
   1 N1            -0.0155     1.2947     0.0092 N.2     
   2 C2             0.0021    -0.0041     0.0020 C.2     
   3 N3            -1.1168    -0.8300     0.0076 N.am    
   4 N4             1.0945     1.8960     0.0018 N.2     
   5 C5             2.1557     1.1534    -0.0123 C.2     
   6 S6             1.6320    -0.5310    -0.0164 S.3     
   7 C7             3.5816     1.6410    -0.0241 C.3     
   8 C8             4.0787     1.7984     1.4143 C.3     
   9 C9             6.1989     2.5079     3.1644 C.3     
  10 C10            7.6391     2.9988     3.3250 C.3     
  11 C11            7.9746     3.1008     4.7906 C.2     
  12 N12            8.4834     2.1629     5.5249 N.2     
  13 N13            8.6933     2.4459     6.7372 N.2     
  14 C14            8.3839     3.6414     7.1397 C.2     
  15 S15            7.7520     4.5212     5.8126 S.3     
  16 N16            8.5433     4.1281     8.4328 N.am    
  17 C17            9.0592     3.3348     9.3925 C.2     
  18 O18            9.3844     2.1966     9.1285 O.2     
  19 C19            9.2319     3.8621    10.7936 C.3     
  20 C20           -2.3521    -0.2911     0.0220 C.2     
  21 O21           -2.4879     0.9140     0.0301 O.2     
  22 C22           -3.5646    -1.1861     0.0280 C.3     
  23 S23            5.7950     2.3852     1.4002 S.3     
  24 C24           -4.8471    -0.3360     0.0446 C.3     
  25 C25           -5.6258    -0.6880    -1.2397 C.3     
  26 C26           -5.1149    -2.1003    -1.6187 C.3     
  27 C27           -3.6086    -2.0249    -1.2659 C.3     
  28 C28            9.8356     2.7720    11.6964 C.3     
  29 C29           11.1791     3.3242    12.2160 C.3     
  30 C30           11.0222     4.8618    12.1151 C.3     
  31 C31           10.2296     5.0387    10.7962 C.3     
  32 H32           -1.0082    -1.7939     0.0010 H       
  33 H33            4.2081     0.9191    -0.5480 H       
  34 H34            3.6324     2.6033    -0.5334 H       
  35 H35            3.4522     2.5202     1.9383 H       
  36 H36            4.0279     0.8360     1.9237 H       
  37 H37            6.0951     1.5278     3.6299 H       
  38 H38            5.5194     3.2120     3.6446 H       
  39 H39            8.3186     2.2947     2.8448 H       
  40 H40            7.7429     3.9790     2.8595 H       
  41 H41            8.2832     5.0384     8.6439 H       
  42 H42            8.2703     4.1861    11.1916 H       
  43 H43           -3.5400    -1.8419     0.8983 H       
  44 H44           -5.4453    -0.5799     0.9226 H       
  45 H45           -4.5926     0.7238     0.0484 H       
  46 H46           -6.6975    -0.7103    -1.0421 H       
  47 H47           -5.3977     0.0254    -2.0317 H       
  48 H48           -5.6136    -2.8643    -1.0223 H       
  49 H49           -5.2534    -2.2883    -2.6834 H       
  50 H50           -3.0548    -1.5275    -2.0621 H       
  51 H51           -3.2083    -3.0229    -1.0874 H       
  52 H52            9.1674     2.5676    12.5329 H       
  53 H53           10.0036     1.8616    11.1211 H       
  54 H54           11.3399     3.0243    13.2515 H       
  55 H55           12.0009     2.9825    11.5868 H       
  56 H56           10.4548     5.2486    12.9616 H       
  57 H57           11.9965     5.3459    12.0481 H       
  58 H58           10.8981     4.9739     9.9377 H       
  59 H59            9.6975     5.9900    10.7955 H       
@<TRIPOS>BOND
   1    1    2 2
   2    1    4 1
   3    2    3 1
   4    2    6 1
   5    3   20 am
   6    3   32 1
   7    4    5 2
   8    5    6 1
   9    5    7 1
  10    7    8 1
  11    7   33 1
  12    7   34 1
  13    8   23 1
  14    8   35 1
  15    8   36 1
  16    9   10 1
  17    9   23 1
  18    9   37 1
  19    9   38 1
  20   10   11 1
  21   10   39 1
  22   10   40 1
  23   11   12 2
  24   11   15 1
  25   12   13 1
  26   13   14 2
  27   14   15 1
  28   14   16 1
  29   16   17 am
  30   16   41 1
  31   17   18 2
  32   17   19 1
  33   19   28 1
  34   19   31 1
  35   19   42 1
  36   20   21 2
  37   20   22 1
  38   22   24 1
  39   22   27 1
  40   22   43 1
  41   24   25 1
  42   24   44 1
  43   24   45 1
  44   25   26 1
  45   25   46 1
  46   25   47 1
  47   26   27 1
  48   26   48 1
  49   26   49 1
  50   27   50 1
  51   27   51 1
  52   28   29 1
  53   28   52 1
  54   28   53 1
  55   29   30 1
  56   29   54 1
  57   29   55 1
  58   30   31 1
  59   30   56 1
  60   30   57 1
  61   31   58 1
  62   31   59 1

#	End of record

