#	Name: ASD03731856
#	Creating user name:	WinNT
#	Creation time:	15. 06. 2019 20:46

#	Modifying user name:	WinNT
#	Modification time:	15. 06. 2019 20:46

#	Program:	/corina/corina34_cracker 3.40 0067  02.08.2006

@<TRIPOS>MOLECULE
ASD03731856
  39   40    0    0    0
SMALL
NO_CHARGES


@<TRIPOS>ATOM
   1 C1            -0.0180     1.4727     0.0101 C.2     
   2 C2             0.0021    -0.0041     0.0020 C.ar    
   3 C3             1.2206    -0.6900    -0.0133 C.ar    
   4 C4             1.2316    -2.0726    -0.0204 C.ar    
   5 C5             0.0418    -2.7763    -0.0123 C.ar    
   6 C6            -1.1694    -2.1026     0.0024 C.ar    
   7 C7            -1.1954    -0.7218     0.0154 C.ar    
   8 O8             1.0265     2.0949     0.0035 O.2     
   9 N9            -1.1942     2.1307     0.0193 N.am    
  10 S10           -1.2166     3.7865     0.0284 S.o2    
  11 O11           -2.5980     4.1181     0.0625 O.2     
  12 O12           -0.3511     4.1429     1.0976 O.2     
  13 F13           -2.3274    -2.7984     0.0093 F       
  14 F14            2.3842    -0.0035    -0.0216 F       
  15 C15            0.0618    -4.2832    -0.0200 C.3     
  16 C16           -0.1646    -4.7958     1.3789 C.ar    
  17 C17           -1.4566    -4.9480     1.8618 C.ar    
  18 C18           -1.6623    -5.4204     3.1494 C.ar    
  19 C19           -0.5797    -5.7384     3.9488 C.ar    
  20 C20            0.7073    -5.5851     3.4646 C.ar    
  21 C21            0.9137    -5.1197     2.1791 C.ar    
  22 O22           -2.5188    -4.6343     1.0742 O.3     
  23 Cl23          -0.8356    -6.3298     5.5608 Cl      
  24 C24           -0.4880     4.2578    -1.5646 C.3     
  25 C25           -3.8197    -4.8159     1.6370 C.3     
  26 H26            2.1718    -2.6040    -0.0325 H       
  27 H27           -2.1400    -0.1984     0.0318 H       
  28 H28           -2.0276     1.6343     0.0205 H       
  29 H29           -0.7270    -4.6536    -0.6748 H       
  30 H30            1.0287    -4.6319    -0.3827 H       
  31 H31           -2.6669    -5.5393     3.5275 H       
  32 H32            1.5519    -5.8333     4.0903 H       
  33 H33            1.9191    -5.0051     1.8017 H       
  34 H34           -1.0900     3.8472    -2.3752 H       
  35 H35           -0.4628     5.3446    -1.6453 H       
  36 H36            0.5266     3.8650    -1.6305 H       
  37 H37           -4.5753    -4.5293     0.9055 H       
  38 H38           -3.9553    -5.8629     1.9082 H       
  39 H39           -3.9208    -4.1941     2.5265 H       
@<TRIPOS>BOND
   1    1    2 1
   2    1    8 2
   3    1    9 am
   4    2    3 ar
   5    2    7 ar
   6    3    4 ar
   7    3   14 1
   8    4    5 ar
   9    4   26 1
  10    5    6 ar
  11    5   15 1
  12    6    7 ar
  13    6   13 1
  14    7   27 1
  15    9   10 am
  16    9   28 1
  17   10   11 2
  18   10   12 2
  19   10   24 1
  20   15   16 1
  21   15   29 1
  22   15   30 1
  23   16   17 ar
  24   16   21 ar
  25   17   18 ar
  26   17   22 1
  27   18   19 ar
  28   18   31 1
  29   19   20 ar
  30   19   23 1
  31   20   21 ar
  32   20   32 1
  33   21   33 1
  34   22   25 1
  35   24   34 1
  36   24   35 1
  37   24   36 1
  38   25   37 1
  39   25   38 1
  40   25   39 1

#	End of record

