#	Name: ASD01910067
#	Creating user name:	WinNT
#	Creation time:	15. 06. 2019 19:55

#	Modifying user name:	WinNT
#	Modification time:	15. 06. 2019 19:55

#	Program:	/corina/corina34_cracker 3.40 0067  02.08.2006

@<TRIPOS>MOLECULE
ASD01910067
  44   47    0    0    0
SMALL
NO_CHARGES


@<TRIPOS>ATOM
   1 N1            -0.0169     1.3963     0.0097 N.pl3   
   2 N2             0.0021    -0.0041     0.0020 N.2     
   3 C3            -1.2425    -0.4343     0.0124 C.2     
   4 C4            -2.0958     0.6918     0.0271 C.2     
   5 C5            -1.3168     1.8013     0.0303 C.2     
   6 C6             1.1056     2.2342     0.0035 C.ar    
   7 C7             2.3820     1.6873    -0.0121 C.ar    
   8 C8             3.4868     2.5161    -0.0187 C.ar    
   9 C9             3.3230     3.8891    -0.0097 C.ar    
  10 C10            2.0533     4.4368     0.0058 C.ar    
  11 C11            0.9444     3.6135     0.0072 C.ar    
  12 C12           -1.6733    -1.8534     0.0084 C.ar    
  13 N13           -3.5005     0.6662     0.0409 N.am    
  14 C14           -4.1955     1.8209     0.0542 C.2     
  15 C15           -5.6735     1.7940     0.0686 C.ar    
  16 O16           -3.6068     2.8847     0.0543 O.2     
  17 C17           -0.9385    -2.8056    -0.6960 C.ar    
  18 C18           -1.3439    -4.1248    -0.6957 C.ar    
  19 C19           -2.4773    -4.5027     0.0014 C.ar    
  20 C20           -3.2107    -3.5619     0.7019 C.ar    
  21 C21           -2.8112    -2.2410     0.7138 C.ar    
  22 C22           -6.3933     2.9865     0.0824 C.ar    
  23 C23           -7.7868     2.9521     0.0960 C.ar    
  24 C24           -8.4518     1.7233     0.0958 C.ar    
  25 C25           -7.7317     0.5452     0.0825 C.ar    
  26 C26           -6.3515     0.5724     0.0627 C.ar    
  27 C27           -8.5348     4.1731     0.1107 C.1     
  28 N28           -9.1282     5.1417     0.1224 N.1     
  29 H29           -1.6649     2.8236     0.0410 H       
  30 H30            2.5106     0.6150    -0.0188 H       
  31 H31            4.4797     2.0913    -0.0305 H       
  32 H32            4.1885     4.5351    -0.0146 H       
  33 H33            1.9286     5.5096     0.0132 H       
  34 H34           -0.0469     4.0418     0.0193 H       
  35 H35           -3.9702    -0.1825     0.0407 H       
  36 H36           -0.0539    -2.5115    -1.2412 H       
  37 H37           -0.7753    -4.8634    -1.2412 H       
  38 H38           -2.7910    -5.5361    -0.0014 H       
  39 H39           -4.0950    -3.8625     1.2442 H       
  40 H40           -3.3845    -1.5073     1.2610 H       
  41 H41           -5.8741     3.9335     0.0829 H       
  42 H42           -9.5314     1.6950     0.1063 H       
  43 H43           -8.2507    -0.4020     0.0831 H       
  44 H44           -5.7945    -0.3528     0.0521 H       
@<TRIPOS>BOND
   1    1    2 1
   2    1    6 1
   3    1    5 1
   4    2    3 2
   5    3    4 1
   6    3   12 1
   7    4    5 2
   8    4   13 1
   9    5   29 1
  10    6    7 ar
  11    6   11 ar
  12    7    8 ar
  13    7   30 1
  14    8    9 ar
  15    8   31 1
  16    9   10 ar
  17    9   32 1
  18   10   11 ar
  19   10   33 1
  20   11   34 1
  21   12   17 ar
  22   12   21 ar
  23   13   14 am
  24   13   35 1
  25   14   15 1
  26   14   16 2
  27   15   22 ar
  28   15   26 ar
  29   17   18 ar
  30   17   36 1
  31   18   19 ar
  32   18   37 1
  33   19   20 ar
  34   19   38 1
  35   20   21 ar
  36   20   39 1
  37   21   40 1
  38   22   23 ar
  39   22   41 1
  40   23   24 ar
  41   23   27 1
  42   24   25 ar
  43   24   42 1
  44   25   26 ar
  45   25   43 1
  46   26   44 1
  47   27   28 3

#	End of record

