#	Name: ASD01920009
#	Creating user name:	WinNT
#	Creation time:	15. 06. 2019 20:11

#	Modifying user name:	WinNT
#	Modification time:	15. 06. 2019 20:11

#	Program:	/corina/corina34_cracker 3.40 0067  02.08.2006

@<TRIPOS>MOLECULE
ASD01920009
  41   44    0    0    0
SMALL
NO_CHARGES


@<TRIPOS>ATOM
   1 N1             0.0118     1.2561     0.2424 N.am    
   2 C2            -0.0049    -0.1068     0.1014 C.2     
   3 C3            -1.1749    -0.7922    -0.0502 C.2     
   4 C4            -2.3885    -0.0941    -0.0623 C.2     
   5 C5            -2.3619     1.3045     0.0836 C.2     
   6 C6            -1.1349     1.9698     0.2422 C.2     
   7 O7            -3.6822    -0.4207    -0.1851 O.3     
   8 N8            -4.4202     0.5367    -0.1373 N.2     
   9 C9            -3.7806     1.6714     0.0236 C.2     
  10 C10           -4.3655     3.0294     0.1241 C.ar    
  11 O11           -1.1046     3.1818     0.3691 O.2     
  12 C12            1.2926     1.9492     0.4020 C.3     
  13 C13            1.2721    -0.8503     0.1132 C.ar    
  14 C14            1.4253    -1.9677     0.9361 C.ar    
  15 C15            2.6199    -2.6576     0.9419 C.ar    
  16 C16            3.6651    -2.2440     0.1350 C.ar    
  17 C17            3.5202    -1.1372    -0.6826 C.ar    
  18 C18            2.3288    -0.4419    -0.7027 C.ar    
  19 C19           -5.3356     3.4463    -0.7930 C.ar    
  20 C20           -5.8769     4.7184    -0.6912 C.ar    
  21 C21           -5.4589     5.5701     0.3130 C.ar    
  22 C22           -4.4989     5.1603     1.2222 C.ar    
  23 C23           -3.9556     3.8952     1.1366 C.ar    
  24 O24           -5.7453     2.6083    -1.7799 O.3     
  25 C25           -6.7392     3.1026    -2.6798 C.3     
  26 H26           -1.1649    -1.8665    -0.1605 H       
  27 H27            1.7248     2.1443    -0.5794 H       
  28 H28            1.1325     2.8933     0.9227 H       
  29 H29            1.9734     1.3256     0.9814 H       
  30 H30            0.6105    -2.2911     1.5669 H       
  31 H31            2.7397    -3.5221     1.5779 H       
  32 H32            4.5983    -2.7875     0.1436 H       
  33 H33            4.3400    -0.8195    -1.3097 H       
  34 H34            2.2169     0.4216    -1.3416 H       
  35 H35           -6.6260     5.0441    -1.3977 H       
  36 H36           -5.8829     6.5605     0.3887 H       
  37 H37           -4.1774     5.8321     2.0044 H       
  38 H38           -3.2071     3.5790     1.8480 H       
  39 H39           -7.6393     3.3597    -2.1214 H       
  40 H40           -6.3607     3.9899    -3.1874 H       
  41 H41           -6.9757     2.3354    -3.4170 H       
@<TRIPOS>BOND
   1    1    2 1
   2    1   12 1
   3    1    6 am
   4    2    3 2
   5    2   13 1
   6    3    4 1
   7    3   26 1
   8    4    5 2
   9    4    7 1
  10    5    6 1
  11    5    9 1
  12    6   11 2
  13    7    8 1
  14    8    9 2
  15    9   10 1
  16   10   19 ar
  17   10   23 ar
  18   12   27 1
  19   12   28 1
  20   12   29 1
  21   13   14 ar
  22   13   18 ar
  23   14   15 ar
  24   14   30 1
  25   15   16 ar
  26   15   31 1
  27   16   17 ar
  28   16   32 1
  29   17   18 ar
  30   17   33 1
  31   18   34 1
  32   19   20 ar
  33   19   24 1
  34   20   21 ar
  35   20   35 1
  36   21   22 ar
  37   21   36 1
  38   22   23 ar
  39   22   37 1
  40   23   38 1
  41   24   25 1
  42   25   39 1
  43   25   40 1
  44   25   41 1

#	End of record

