#	Name: ASD03331774
#	Creating user name:	WinNT
#	Creation time:	15. 06. 2019 20:39

#	Modifying user name:	WinNT
#	Modification time:	15. 06. 2019 20:39

#	Program:	/corina/corina34_cracker 3.40 0067  02.08.2006

@<TRIPOS>MOLECULE
ASD03331774
  52   55    0    0    0
SMALL
NO_CHARGES


@<TRIPOS>ATOM
   1 C1            -3.3288    -4.8505    -1.3337 C.ar    
   2 C2            -2.2233    -4.2929    -0.7218 C.ar    
   3 C3            -0.9525    -4.5500    -1.2191 C.ar    
   4 C4            -0.7968    -5.3674    -2.3308 C.ar    
   5 C5            -1.9056    -5.9225    -2.9390 C.ar    
   6 C6            -3.1709    -5.6648    -2.4414 C.ar    
   7 Cl7           -4.5625    -6.3645    -3.2079 Cl      
   8 N8             0.1696    -3.9857    -0.6011 N.am    
   9 C9             1.3273    -4.6738    -0.5484 C.2     
  10 N10            2.4362    -4.0901    -0.0524 N.am    
  11 O11            1.3713    -5.8212    -0.9483 O.2     
  12 C12            3.6046    -4.8407     0.1199 C.ar    
  13 C13            3.5264    -6.2115     0.3167 C.ar    
  14 C14            4.6878    -6.9527     0.4868 C.ar    
  15 C15            5.9244    -6.3193     0.4594 C.ar    
  16 C16            5.9984    -4.9537     0.2631 C.ar    
  17 C17            4.8445    -4.2144     0.0883 C.ar    
  18 N18            4.6135    -8.3336     0.6857 N.pl3   
  19 C19            5.6963    -9.1478     0.3444 C.ar    
  20 C20            5.9868   -10.2719     1.1044 C.ar    
  21 C21            7.0634   -11.0780     0.7618 C.ar    
  22 C22            7.8467   -10.7573    -0.3402 C.ar    
  23 C23            7.5547    -9.6371    -1.0949 C.ar    
  24 C24            6.4805    -8.8359    -0.7602 C.ar    
  25 N25            7.3596   -12.2102     1.5243 N.3     
  26 C26            6.1277   -12.8473     2.0248 C.3     
  27 C27            6.1367   -14.3097     1.5322 C.3     
  28 C28            7.6406   -14.5782     1.2618 C.3     
  29 C29            8.1130   -13.2026     0.7285 C.3     
  30 H30           -4.3170    -4.6545    -0.9446 H       
  31 H31           -2.3470    -3.6573     0.1425 H       
  32 H32            0.1904    -5.5685    -2.7197 H       
  33 H33           -1.7851    -6.5580    -3.8039 H       
  34 H34            0.1140    -3.0995    -0.2107 H       
  35 H35            2.4245    -3.1497     0.1851 H       
  36 H36            2.5640    -6.7012     0.3379 H       
  37 H37            6.8285    -6.8951     0.5920 H       
  38 H38            6.9606    -4.4637     0.2426 H       
  39 H39            4.9059    -3.1471    -0.0652 H       
  40 H40            3.8101    -8.7270     1.0608 H       
  41 H41            5.3767   -10.5188     1.9606 H       
  42 H42            8.6848   -11.3840    -0.6071 H       
  43 H43            8.1652    -9.3899    -1.9507 H       
  44 H44            6.2550    -7.9611    -1.3521 H       
  45 H45            6.1140   -12.8230     3.1144 H       
  46 H46            5.2547   -12.3281     1.6292 H       
  47 H47            5.7586   -14.9790     2.3050 H       
  48 H48            5.5561   -14.4111     0.6153 H       
  49 H49            8.1621   -14.8401     2.1824 H       
  50 H50            7.7692   -15.3545     0.5075 H       
  51 H51            7.8717   -13.1027    -0.3297 H       
  52 H52            9.1846   -13.0818     0.8873 H       
@<TRIPOS>BOND
   1    1    2 ar
   2    1    6 ar
   3    1   30 1
   4    2    3 ar
   5    2   31 1
   6    3    4 ar
   7    3    8 1
   8    4    5 ar
   9    4   32 1
  10    5    6 ar
  11    5   33 1
  12    6    7 1
  13    8    9 am
  14    8   34 1
  15    9   10 am
  16    9   11 2
  17   10   12 1
  18   10   35 1
  19   12   13 ar
  20   12   17 ar
  21   13   14 ar
  22   13   36 1
  23   14   15 ar
  24   14   18 1
  25   15   16 ar
  26   15   37 1
  27   16   17 ar
  28   16   38 1
  29   17   39 1
  30   18   19 1
  31   18   40 1
  32   19   20 ar
  33   19   24 ar
  34   20   21 ar
  35   20   41 1
  36   21   22 ar
  37   21   25 1
  38   22   23 ar
  39   22   42 1
  40   23   24 ar
  41   23   43 1
  42   24   44 1
  43   25   26 1
  44   25   29 1
  45   26   27 1
  46   26   45 1
  47   26   46 1
  48   27   28 1
  49   27   47 1
  50   27   48 1
  51   28   29 1
  52   28   49 1
  53   28   50 1
  54   29   51 1
  55   29   52 1

#	End of record

