#	Name: ASD09080088
#	Creating user name:	WinNT
#	Creation time:	15. 06. 2019 21:20

#	Modifying user name:	WinNT
#	Modification time:	15. 06. 2019 21:20

#	Program:	/corina/corina34_cracker 3.40 0067  02.08.2006

@<TRIPOS>MOLECULE
ASD09080088
  42   42    0    0    0
SMALL
NO_CHARGES


@<TRIPOS>ATOM
   1 C1            -0.0167     1.3831     0.0096 C.ar    
   2 C2             0.0021    -0.0041     0.0020 C.ar    
   3 C3            -1.1854    -0.7098     0.0095 C.ar    
   4 C4            -2.3921    -0.0349     0.0246 C.ar    
   5 C5            -2.4135     1.3476     0.0318 C.ar    
   6 C6            -1.2287     2.0579     0.0306 C.ar    
   7 O7             1.1501     2.0797     0.0022 O.3     
   8 C8            -3.6860    -0.8073     0.0328 C.3     
   9 C9            -4.1102    -1.0765     1.4779 C.3     
  10 N10           -4.4128     0.1935     2.1427 N.am    
  11 O11           -4.5937     1.4594     4.0942 O.3     
  12 C12           -4.4678     1.4929     5.5403 C.3     
  13 C13           -3.0288     1.1549     5.9350 C.3     
  14 C14           -4.8217     2.8912     6.0508 C.3     
  15 C15           -5.4205     0.4679     6.1590 C.3     
  16 C16           -4.3156     0.2923     3.4833 C.2     
  17 O17           -3.9771    -0.6719     4.1406 O.2     
  18 C18           -5.3363    -1.9527     1.4867 C.2     
  19 O19           -6.3580    -1.5569     1.9959 O.2     
  20 O20           -5.2933    -3.1727     0.9288 O.3     
  21 C21           -6.5116    -3.9615     0.9739 C.3     
  22 H22            0.9443    -0.5317    -0.0101 H       
  23 H23           -1.1713    -1.7897     0.0032 H       
  24 H24           -3.3573     1.8725     0.0432 H       
  25 H25           -1.2459     3.1378     0.0362 H       
  26 H26            1.4794     2.2860    -0.8832 H       
  27 H27           -4.4590    -0.2266    -0.4706 H       
  28 H28           -3.5468    -1.7550    -0.4875 H       
  29 H29           -3.3005    -1.5794     2.0066 H       
  30 H30           -4.6830     0.9632     1.6179 H       
  31 H31           -2.3501     1.8852     5.4943 H       
  32 H32           -2.9343     1.1801     7.0206 H       
  33 H33           -2.7767     0.1588     5.5713 H       
  34 H34           -5.8469     3.1319     5.7696 H       
  35 H35           -4.7273     2.9163     7.1364 H       
  36 H36           -4.1430     3.6214     5.6101 H       
  37 H37           -5.1684    -0.5282     5.7953 H       
  38 H38           -5.3260     0.4930     7.2446 H       
  39 H39           -6.4457     0.7087     5.8778 H       
  40 H40           -7.3083    -3.4296     0.4540 H       
  41 H41           -6.3401    -4.9228     0.4895 H       
  42 H42           -6.8007    -4.1243     2.0122 H       
@<TRIPOS>BOND
   1    1    2 ar
   2    1    7 1
   3    1    6 ar
   4    2    3 ar
   5    2   22 1
   6    3    4 ar
   7    3   23 1
   8    4    5 ar
   9    4    8 1
  10    5    6 ar
  11    5   24 1
  12    6   25 1
  13    7   26 1
  14    8    9 1
  15    8   27 1
  16    8   28 1
  17    9   10 1
  18    9   18 1
  19    9   29 1
  20   10   16 am
  21   10   30 1
  22   11   12 1
  23   11   16 1
  24   12   13 1
  25   12   14 1
  26   12   15 1
  27   13   31 1
  28   13   32 1
  29   13   33 1
  30   14   34 1
  31   14   35 1
  32   14   36 1
  33   15   37 1
  34   15   38 1
  35   15   39 1
  36   16   17 2
  37   18   19 2
  38   18   20 1
  39   20   21 1
  40   21   40 1
  41   21   41 1
  42   21   42 1

#	End of record

