#	Name: ASD08150011
#	Creating user name:	WinNT
#	Creation time:	15. 06. 2019 21:15

#	Modifying user name:	WinNT
#	Modification time:	15. 06. 2019 21:15

#	Program:	/corina/corina34_cracker 3.40 0067  02.08.2006

@<TRIPOS>MOLECULE
ASD08150011
  42   46    0    0    0
SMALL
NO_CHARGES


@<TRIPOS>ATOM
   1 N1            -0.0155     1.2942     0.0092 N.2     
   2 C2             0.0021    -0.0041     0.0020 C.2     
   3 N3             1.1488    -0.7360    -0.0129 N.am    
   4 C4             2.3561    -0.1243    -0.0211 C.2     
   5 C5             2.3704     1.3449    -0.0133 C.ar    
   6 C6             3.5614     2.0710    -0.0203 C.ar    
   7 C7             3.5161     3.4495    -0.0121 C.ar    
   8 C8             2.2981     4.1155     0.0035 C.ar    
   9 C9             1.1114     3.4169     0.0107 C.ar    
  10 C10            1.1299     2.0209     0.0021 C.ar    
  11 O11            3.3902    -0.7666    -0.0340 O.2     
  12 C12           -1.3145    -0.7374     0.0112 C.3     
  13 S13           -2.6718     0.4599     0.0311 S.3     
  14 N14           -5.9165     1.0931     0.0666 N.2     
  15 C15           -7.2138     0.9885     0.0790 C.2     
  16 N16           -7.5749    -0.3260     0.0762 N.pl3   
  17 C17           -6.4217    -1.0692     0.0611 C.ar    
  18 N18           -6.1427    -2.3687     0.0516 N.ar    
  19 C19           -4.8945    -2.7873     0.0367 C.ar    
  20 N20           -3.8684    -1.9566     0.0300 N.ar    
  21 C21           -4.0490    -0.6391     0.0389 C.ar    
  22 C22           -5.3646    -0.1437     0.0551 C.ar    
  23 C23            1.0794    -2.1352    -0.0193 C.ar    
  24 C24            1.0566    -2.8369     1.1803 C.ar    
  25 C25            0.9880    -4.2171     1.1700 C.ar    
  26 C26            0.9427    -4.8994    -0.0321 C.ar    
  27 C27            0.9653    -4.2037    -1.2267 C.ar    
  28 C28            1.0274    -2.8235    -1.2235 C.ar    
  29 Cl29           1.1146    -1.9808     2.6894 Cl      
  30 Cl30           5.0887     1.2460    -0.0387 Cl      
  31 H31            4.4358     4.0156    -0.0175 H       
  32 H32            2.2810     5.1953     0.0106 H       
  33 H33            0.1704     3.9467     0.0232 H       
  34 H34           -1.3907    -1.3583    -0.8814 H       
  35 H35           -1.3730    -1.3678     0.8984 H       
  36 H36           -7.9025     1.8204     0.0899 H       
  37 H37           -8.4809    -0.6724     0.0835 H       
  38 H38           -4.7028    -3.8501     0.0297 H       
  39 H39            0.9703    -4.7634     2.1014 H       
  40 H40            0.8899    -5.9781    -0.0378 H       
  41 H41            0.9297    -4.7397    -2.1637 H       
  42 H42            1.0401    -2.2809    -2.1572 H       
@<TRIPOS>BOND
   1    1    2 2
   2    1   10 1
   3    2    3 1
   4    2   12 1
   5    3    4 am
   6    3   23 1
   7    4    5 1
   8    4   11 2
   9    5    6 ar
  10    5   10 ar
  11    6    7 ar
  12    6   30 1
  13    7    8 ar
  14    7   31 1
  15    8    9 ar
  16    8   32 1
  17    9   10 ar
  18    9   33 1
  19   12   13 1
  20   12   34 1
  21   12   35 1
  22   13   21 1
  23   14   15 2
  24   14   22 1
  25   15   16 1
  26   15   36 1
  27   16   17 1
  28   16   37 1
  29   17   18 ar
  30   17   22 ar
  31   18   19 ar
  32   19   20 ar
  33   19   38 1
  34   20   21 ar
  35   21   22 ar
  36   23   24 ar
  37   23   28 ar
  38   24   25 ar
  39   24   29 1
  40   25   26 ar
  41   25   39 1
  42   26   27 ar
  43   26   40 1
  44   27   28 ar
  45   27   41 1
  46   28   42 1

#	End of record

