#	Name: ASD03950030
#	Creating user name:	WinNT
#	Creation time:	15. 06. 2019 20:48

#	Modifying user name:	WinNT
#	Modification time:	15. 06. 2019 20:48

#	Program:	/corina/corina34_cracker 3.40 0067  02.08.2006

@<TRIPOS>MOLECULE
ASD03950030
  53   56    0    0    0
SMALL
NO_CHARGES


@<TRIPOS>ATOM
   1 N1            -0.0169     1.3942     0.0097 N.pl3   
   2 N2             0.0021    -0.0041     0.0020 N.2     
   3 C3             1.2311    -0.4341    -0.0120 C.2     
   4 C4             2.1094     0.7333    -0.0141 C.ar    
   5 C5             3.4968     0.8989    -0.0264 C.ar    
   6 C6             4.0413     2.1754    -0.0248 C.ar    
   7 C7             3.2114     3.2978    -0.0104 C.ar    
   8 C8             1.8300     3.1501     0.0020 C.ar    
   9 C9             1.2665     1.8606    -0.0000 C.ar    
  10 C10            0.9578     4.3397     0.0171 C.2     
  11 O11           -0.2509     4.2074     0.0280 O.2     
  12 N12            1.5007     5.5733     0.0190 N.am    
  13 N13            1.2106    -4.6672    -0.0333 N.am    
  14 C14            1.6136    -4.0358     1.2306 C.3     
  15 C15            1.1380    -2.5796     1.2280 C.3     
  16 C16            1.6687    -1.8761    -0.0232 C.3     
  17 C17            1.1161    -2.5669    -1.2720 C.3     
  18 C18            1.5915    -4.0230    -1.2977 C.3     
  19 S19            0.3494    -6.0817    -0.0330 S.o2    
  20 O20            0.6707    -6.6878    -1.2774 O.2     
  21 O21            0.6975    -6.7036     1.1964 O.2     
  22 C22           -1.3862    -5.5548    -0.0108 C.3     
  23 C23           -2.2932    -6.7870    -0.0088 C.3     
  24 C24            5.5153     2.3484    -0.0379 C.ar    
  25 C25            6.0686     3.6273    -0.0363 C.ar    
  26 C26            7.4413     3.7834    -0.0481 C.ar    
  27 C27            8.2673     2.6684    -0.0615 C.ar    
  28 C28            7.7198     1.3967    -0.0635 C.ar    
  29 C29            6.3493     1.2326    -0.0460 C.ar    
  30 F30            9.6093     2.8242    -0.0729 F       
  31 F31            7.9797     5.0224    -0.0470 F       
  32 H32           -0.8151     1.9454     0.0166 H       
  33 H33            4.1445     0.0348    -0.0369 H       
  34 H34            3.6456     4.2866    -0.0086 H       
  35 H35            2.4649     5.6789     0.0104 H       
  36 H36            0.9272     6.3556     0.0290 H       
  37 H37            1.1582    -4.5675     2.0661 H       
  38 H38            2.6992    -4.0655     1.3241 H       
  39 H39            0.0484    -2.5528     1.2260 H       
  40 H40            1.5132    -2.0728     2.1171 H       
  41 H41            2.7576    -1.9251    -0.0331 H       
  42 H42            0.0267    -2.5402    -1.2505 H       
  43 H43            1.4757    -2.0510    -2.1623 H       
  44 H44            2.6753    -4.0516    -1.4105 H       
  45 H45            1.1215    -4.5462    -2.1305 H       
  46 H46           -1.5750    -4.9633     0.8850 H       
  47 H47           -1.5943    -4.9520    -0.8948 H       
  48 H48           -2.0852    -7.3899     0.8751 H       
  49 H49           -3.3362    -6.4704     0.0045 H       
  50 H50           -2.1045    -7.3785    -0.9047 H       
  51 H51            5.4255     4.4949    -0.0263 H       
  52 H52            8.3662     0.5316    -0.0746 H       
  53 H53            5.9239     0.2399    -0.0431 H       
@<TRIPOS>BOND
   1    1    2 1
   2    1    9 1
   3    1   32 1
   4    2    3 2
   5    3    4 1
   6    3   16 1
   7    4    5 ar
   8    4    9 ar
   9    5    6 ar
  10    5   33 1
  11    6    7 ar
  12    6   24 1
  13    7    8 ar
  14    7   34 1
  15    8    9 ar
  16    8   10 1
  17   10   11 2
  18   10   12 am
  19   12   35 1
  20   12   36 1
  21   13   14 1
  22   13   18 1
  23   13   19 am
  24   14   15 1
  25   14   37 1
  26   14   38 1
  27   15   16 1
  28   15   39 1
  29   15   40 1
  30   16   17 1
  31   16   41 1
  32   17   18 1
  33   17   42 1
  34   17   43 1
  35   18   44 1
  36   18   45 1
  37   19   20 2
  38   19   21 2
  39   19   22 1
  40   22   23 1
  41   22   46 1
  42   22   47 1
  43   23   48 1
  44   23   49 1
  45   23   50 1
  46   24   25 ar
  47   24   29 ar
  48   25   26 ar
  49   25   51 1
  50   26   27 ar
  51   26   31 1
  52   27   28 ar
  53   27   30 1
  54   28   29 ar
  55   28   52 1
  56   29   53 1

#	End of record

