#	Name: ASD08070526
#	Creating user name:	WinNT
#	Creation time:	15. 06. 2019 21:15

#	Modifying user name:	WinNT
#	Modification time:	15. 06. 2019 21:15

#	Program:	/corina/corina34_cracker 3.40 0067  02.08.2006

@<TRIPOS>MOLECULE
ASD08070526
  39   39    0    0    0
SMALL
NO_CHARGES


@<TRIPOS>ATOM
   1 C1            -0.0168     1.3856     0.0097 C.ar    
   2 C2             0.0021    -0.0041     0.0020 C.ar    
   3 C3             1.2131    -0.6864    -0.0127 C.ar    
   4 C4             2.3993     0.0127    -0.0203 C.ar    
   5 C5             2.3846     1.4101    -0.0131 C.ar    
   6 C6             1.1653     2.0921     0.0022 C.ar    
   7 C7             1.2278    -2.1933    -0.0200 C.3     
   8 C8             3.6539     2.1635    -0.0211 C.2     
   9 O9             4.7140     1.5683    -0.0340 O.2     
  10 N10            3.6377     3.5111    -0.0142 N.am    
  11 C11            4.8974     4.2589    -0.0222 C.3     
  12 C12            4.6631     5.6465    -0.6227 C.3     
  13 C13            5.4136     4.4038     1.4108 C.3     
  14 C14            5.7659     3.0232     1.9681 C.3     
  15 O15            3.7870     6.3909     0.2260 O.3     
  16 C16            3.5015     7.7091    -0.2464 C.3     
  17 O17           -1.1649    -0.6968     0.0094 O.3     
  18 C18           -2.3726     0.0670     0.0250 C.3     
  19 H19           -0.9597     1.9121     0.0170 H       
  20 H20            3.3397    -0.5182    -0.0314 H       
  21 H21            1.1499     3.1720     0.0074 H       
  22 H22            1.2215    -2.5518    -1.0493 H       
  23 H23            2.1261    -2.5504     0.4837 H       
  24 H24            0.3463    -2.5677     0.5005 H       
  25 H25            2.7919     3.9859    -0.0039 H       
  26 H26            5.6340     3.7234    -0.6212 H       
  27 H27            5.6152     6.1698    -0.7106 H       
  28 H28            4.2124     5.5438    -1.6098 H       
  29 H29            6.3023     5.0349     1.4148 H       
  30 H30            4.6415     4.8596     2.0307 H       
  31 H31            4.8772     2.3921     1.9641 H       
  32 H32            6.5379     2.5673     1.3482 H       
  33 H33            6.1336     3.1264     2.9890 H       
  34 H34            4.4295     8.2752    -0.3266 H       
  35 H35            3.0267     7.6492    -1.2257 H       
  36 H36            2.8306     8.2082     0.4528 H       
  37 H37           -2.3965     0.6907     0.9186 H       
  38 H38           -2.4135     0.7002    -0.8612 H       
  39 H39           -3.2289    -0.6074     0.0296 H       
@<TRIPOS>BOND
   1    1    2 ar
   2    1    6 ar
   3    1   19 1
   4    2    3 ar
   5    2   17 1
   6    3    4 ar
   7    3    7 1
   8    4    5 ar
   9    4   20 1
  10    5    6 ar
  11    5    8 1
  12    6   21 1
  13    7   22 1
  14    7   23 1
  15    7   24 1
  16    8    9 2
  17    8   10 am
  18   10   11 1
  19   10   25 1
  20   11   12 1
  21   11   13 1
  22   11   26 1
  23   12   15 1
  24   12   27 1
  25   12   28 1
  26   13   14 1
  27   13   29 1
  28   13   30 1
  29   14   31 1
  30   14   32 1
  31   14   33 1
  32   15   16 1
  33   16   34 1
  34   16   35 1
  35   16   36 1
  36   17   18 1
  37   18   37 1
  38   18   38 1
  39   18   39 1

#	End of record

