#	Name: ASD08151037
#	Creating user name:	WinNT
#	Creation time:	15. 06. 2019 21:17

#	Modifying user name:	WinNT
#	Modification time:	15. 06. 2019 21:17

#	Program:	/corina/corina34_cracker 3.40 0067  02.08.2006

@<TRIPOS>MOLECULE
ASD08151037
  46   48    0    0    0
SMALL
NO_CHARGES


@<TRIPOS>ATOM
   1 C1             2.4424     5.0026    -0.8903 C.2     
   2 C2             3.7010     5.3994    -1.6179 C.3     
   3 N3             0.2970     2.1824     2.4482 N.ar    
   4 C4             0.3081     1.1592     3.2674 C.ar    
   5 C5             1.4209     0.3290     3.3850 C.ar    
   6 C6             2.5360     0.5744     2.6345 C.ar    
   7 C7             2.5184     1.6742     1.7568 C.ar    
   8 C8             3.6357     1.9813     0.9548 C.ar    
   9 C9             3.6024     3.0449     0.1141 C.ar    
  10 C10            2.4552     3.8596     0.0254 C.ar    
  11 C11            1.3298     3.5822     0.8073 C.ar    
  12 C12            1.3545     2.4757     1.6877 C.ar    
  13 N13            0.2059     4.3809     0.7212 N.3     
  14 C14           -0.0334     5.0912     1.9852 C.3     
  15 C15           -1.2369     6.0228     1.8237 C.3     
  16 N16           -2.4146     5.2346     1.4348 N.3     
  17 C17           -2.1753     4.5242     0.1708 C.3     
  18 C18           -0.9718     3.5926     0.3322 C.3     
  19 C19           -3.6098     6.0838     1.3432 C.3     
  20 C20           -4.7924     5.2484     0.8490 C.3     
  21 O21           -5.0750     4.2160     1.7957 O.3     
  22 C22           -6.1689     3.3734     1.4277 C.3     
  23 Cl23           5.0613     0.9947     1.0444 Cl      
  24 O24            1.4195     5.6332    -1.0593 O.2     
  25 H25            3.7528     4.8705    -2.5695 H       
  26 H26            3.6922     6.4742    -1.7996 H       
  27 H27            4.5685     5.1407    -1.0107 H       
  28 H28           -0.5670     0.9547     3.8665 H       
  29 H29            1.4022    -0.5070     4.0685 H       
  30 H30            3.4076    -0.0585     2.7130 H       
  31 H31            4.4650     3.2702    -0.4955 H       
  32 H32           -0.2364     4.3686     2.7757 H       
  33 H33            0.8479     5.6774     2.2455 H       
  34 H34           -1.4342     6.5292     2.7686 H       
  35 H35           -1.0233     6.7625     1.0521 H       
  36 H36           -3.0566     3.9380    -0.0895 H       
  37 H37           -1.9723     5.2468    -0.6197 H       
  38 H38           -0.7745     3.0862    -0.6126 H       
  39 H39           -1.1854     2.8530     1.1039 H       
  40 H40           -3.8403     6.4939     2.3265 H       
  41 H41           -3.4235     6.8991     0.6441 H       
  42 H42           -5.6677     5.8883     0.7371 H       
  43 H43           -4.5441     4.8009    -0.1134 H       
  44 H44           -7.0728     3.9744     1.3278 H       
  45 H45           -5.9492     2.8870     0.4773 H       
  46 H46           -6.3192     2.6162     2.1972 H       
@<TRIPOS>BOND
   1    1    2 1
   2    1   10 1
   3    1   24 2
   4    2   25 1
   5    2   26 1
   6    2   27 1
   7    3    4 ar
   8    3   12 ar
   9    4    5 ar
  10    4   28 1
  11    5    6 ar
  12    5   29 1
  13    6    7 ar
  14    6   30 1
  15    7    8 ar
  16    7   12 ar
  17    8    9 ar
  18    8   23 1
  19    9   10 ar
  20    9   31 1
  21   10   11 ar
  22   11   12 ar
  23   11   13 1
  24   13   14 1
  25   13   18 1
  26   14   15 1
  27   14   32 1
  28   14   33 1
  29   15   16 1
  30   15   34 1
  31   15   35 1
  32   16   17 1
  33   16   19 1
  34   17   18 1
  35   17   36 1
  36   17   37 1
  37   18   38 1
  38   18   39 1
  39   19   20 1
  40   19   40 1
  41   19   41 1
  42   20   21 1
  43   20   42 1
  44   20   43 1
  45   21   22 1
  46   22   44 1
  47   22   45 1
  48   22   46 1

#	End of record

