#	Name: ASD08830188
#	Creating user name:	WinNT
#	Creation time:	15. 06. 2019 21:19

#	Modifying user name:	WinNT
#	Modification time:	15. 06. 2019 21:19

#	Program:	/corina/corina34_cracker 3.40 0067  02.08.2006

@<TRIPOS>MOLECULE
ASD08830188
  51   54    0    0    0
SMALL
NO_CHARGES


@<TRIPOS>ATOM
   1 C1             0.0149     1.7890    -1.7870 C.ar    
   2 C2             0.0439     0.4087    -2.2915 C.2     
   3 C3             1.3624    -0.2944    -2.4876 C.3     
   4 C4             1.1128    -1.7079    -3.0172 C.3     
   5 N5             2.3981    -2.3932    -3.2083 N.3     
   6 O6            -0.9932    -0.1644    -2.5500 O.2     
   7 C7            -1.2035     2.4318    -1.6023 C.ar    
   8 C8             2.1966    -3.8225    -3.4874 C.3     
   9 C9             3.5542    -4.4842    -3.7384 C.3     
  10 O10            4.4010    -4.2677    -2.6064 O.3     
  11 C11            4.6191    -2.8865    -2.3063 C.3     
  12 C12            3.2723    -2.2086    -2.0409 C.3     
  13 C13            1.2213     2.4506    -1.4882 C.ar    
  14 C14            1.2155     3.7255    -1.0214 C.ar    
  15 C15           -0.0013     4.4017    -0.8304 C.ar    
  16 C16           -1.2242     3.7464    -1.1215 C.ar    
  17 C17           -0.0297     5.7245    -0.3475 C.ar    
  18 C18           -1.2557     6.3706    -0.1685 C.ar    
  19 C19           -2.4582     5.7002    -0.4699 C.ar    
  20 C20           -2.4462     4.4269    -0.9298 C.ar    
  21 N21            0.9402     6.6260     0.0280 N.pl3   
  22 C22            0.3064     7.7636     0.4146 C.2     
  23 N23           -0.9821     7.6139     0.2994 N.2     
  24 C24            2.3876     6.4003     0.0138 C.3     
  25 C25            2.9737     6.9309    -1.2961 C.3     
  26 C26            3.0296     7.1332     1.1935 C.3     
  27 H27            1.9671     0.2608    -3.2046 H       
  28 H28            1.8891    -0.3510    -1.5350 H       
  29 H29            0.5081    -2.2631    -2.3002 H       
  30 H30            0.5861    -1.6512    -3.9698 H       
  31 H31           -2.1277     1.9207    -1.8283 H       
  32 H32            1.7135    -4.2957    -2.6326 H       
  33 H33            1.5677    -3.9358    -4.3705 H       
  34 H34            3.4150    -5.5547    -3.8893 H       
  35 H35            4.0135    -4.0476    -4.6253 H       
  36 H36            5.2500    -2.8014    -1.4216 H       
  37 H37            5.1094    -2.4035    -3.1516 H       
  38 H38            3.4286    -1.1438    -1.8680 H       
  39 H39            2.8064    -2.6560    -1.1629 H       
  40 H40            2.1613     1.9385    -1.6316 H       
  41 H41            2.1483     4.2208    -0.7959 H       
  42 H42           -3.4013     6.2071    -0.3282 H       
  43 H43           -3.3780     3.9296    -1.1556 H       
  44 H44            0.7980     8.6589     0.7654 H       
  45 H45            2.5897     5.3324     0.0961 H       
  46 H46            4.0506     6.7630    -1.3067 H       
  47 H47            2.5163     6.4088    -2.1366 H       
  48 H48            2.7716     7.9988    -1.3784 H       
  49 H49            2.6121     6.7552     2.1267 H       
  50 H50            4.1066     6.9653     1.1830 H       
  51 H51            2.8276     8.2011     1.1113 H       
@<TRIPOS>BOND
   1    1    2 1
   2    1   13 ar
   3    1    7 ar
   4    2    3 1
   5    2    6 2
   6    3    4 1
   7    3   27 1
   8    3   28 1
   9    4    5 1
  10    4   29 1
  11    4   30 1
  12    5    8 1
  13    5   12 1
  14    7   16 ar
  15    7   31 1
  16    8    9 1
  17    8   32 1
  18    8   33 1
  19    9   10 1
  20    9   34 1
  21    9   35 1
  22   10   11 1
  23   11   12 1
  24   11   36 1
  25   11   37 1
  26   12   38 1
  27   12   39 1
  28   13   14 ar
  29   13   40 1
  30   14   15 ar
  31   14   41 1
  32   15   16 ar
  33   15   17 ar
  34   16   20 ar
  35   17   18 ar
  36   17   21 1
  37   18   19 ar
  38   18   23 1
  39   19   20 ar
  40   19   42 1
  41   20   43 1
  42   21   22 1
  43   21   24 1
  44   22   23 2
  45   22   44 1
  46   24   25 1
  47   24   26 1
  48   24   45 1
  49   25   46 1
  50   25   47 1
  51   25   48 1
  52   26   49 1
  53   26   50 1
  54   26   51 1

#	End of record

