#	Name: ASD00842086
#	Creating user name:	WinNT
#	Creation time:	15. 06. 2019 18:43

#	Modifying user name:	WinNT
#	Modification time:	15. 06. 2019 18:43

#	Program:	/corina/corina34_cracker 3.40 0067  02.08.2006

@<TRIPOS>MOLECULE
ASD00842086
  95  100    0    0    0
SMALL
NO_CHARGES


@<TRIPOS>ATOM
   1 F1             6.0138    -1.7078    -2.1507 F       
   2 C2             0.8902     1.5141    -0.6892 C.ar    
   3 C3             1.2218     0.1752    -0.8354 C.ar    
   4 C4             1.2012    -0.6666     0.2675 C.ar    
   5 C5             0.8508    -0.1697     1.5077 C.ar    
   6 C6             0.5202     1.1655     1.6506 C.ar    
   7 C7             0.5404     2.0063     0.5535 C.ar    
   8 C8             1.5604    -2.1219     0.1122 C.3     
   9 C9             1.3437    -2.8635     1.4141 C.2     
  10 C10            0.7387    -2.7585    -1.0105 C.3     
  11 C11           -0.7279    -2.5270    -0.7529 C.2     
  12 N12           -1.6497    -3.0614    -1.5783 N.am    
  13 O13           -1.0788    -1.8597     0.1971 O.2     
  14 C14           -3.0755    -2.7488    -1.4108 C.3     
  15 C15           -3.8590    -4.0610    -1.3061 C.3     
  16 C16           -3.5460    -4.9359    -2.5221 C.3     
  17 C17           -2.0518    -5.2659    -2.5441 C.3     
  18 C18           -1.2472    -3.9630    -2.6664 C.3     
  19 N19           -4.3211    -6.1811    -2.4417 N.3     
  20 C20           -4.1371    -6.9951    -3.6513 C.3     
  21 C21           -4.8950    -8.3155    -3.4947 C.3     
  22 N22           -6.3190    -8.0354    -3.2634 N.3     
  23 C23           -6.5031    -7.2215    -2.0538 C.3     
  24 C24           -5.7451    -5.9011    -2.2104 C.3     
  25 C25           -7.0942    -9.2807    -3.1830 C.3     
  26 O26            0.2909    -2.9941     2.0021 O.2     
  27 N27            2.5365    -3.3505     1.7955 N.am    
  28 C28            3.0396    -2.2764    -0.1574 C.ar    
  29 C29            3.5528    -3.0238     0.8953 C.ar    
  30 C30            3.8561    -1.8360    -1.1744 C.ar    
  31 C31            5.2086    -2.1382    -1.1549 C.ar    
  32 C32            5.7320    -2.8830    -0.1102 C.ar    
  33 C33            4.9129    -3.3247     0.9099 C.ar    
  34 Cl34           7.4257    -3.2627    -0.0838 Cl      
  35 C35            2.5451    -5.9308     2.7527 C.ar    
  36 C36            1.2983    -6.3807     2.3427 C.ar    
  37 C37            3.6089    -6.8100     2.8249 C.ar    
  38 C38            3.4340    -8.1386     2.4887 C.ar    
  39 C39            2.1888    -8.5935     2.0780 C.ar    
  40 C40            1.1201    -7.7137     2.0052 C.ar    
  41 O41            2.0173    -9.9006     1.7478 O.3     
  42 O42            0.2525    -5.5158     2.2723 O.3     
  43 C43            3.1619   -10.7503     1.8467 C.3     
  44 C44           -1.0019    -6.0482     1.8422 C.3     
  45 C45           -2.0503    -4.9339     1.8261 C.3     
  46 O46            1.5658    -0.3115    -2.0567 O.3     
  47 C47            1.9806    -0.1039    -4.4285 C.3     
  48 C48            1.4569     0.5831    -3.1657 C.3     
  49 S49            2.7741    -4.2355     3.1748 S.o2    
  50 O50            4.1460    -4.0883     3.5146 O.2     
  51 O51            1.7139    -3.8951     4.0576 O.2     
  52 H52            0.9098     2.1723    -1.5453 H       
  53 H53            0.8347    -0.8245     2.3664 H       
  54 H54            0.2458     1.5520     2.6211 H       
  55 H55            0.2818     3.0487     0.6677 H       
  56 H56            1.0157    -2.3083    -1.9637 H       
  57 H57            0.9371    -3.8298    -1.0434 H       
  58 H58           -3.2172    -2.1650    -0.5013 H       
  59 H59           -3.4284    -2.1802    -2.2712 H       
  60 H60           -3.5693    -4.5861    -0.3959 H       
  61 H61           -4.9272    -3.8457    -1.2781 H       
  62 H62           -3.8130    -4.4003    -3.4331 H       
  63 H63           -1.7790    -5.7797    -1.6223 H       
  64 H64           -1.8336    -5.9082    -3.3973 H       
  65 H65           -1.4522    -3.4960    -3.6297 H       
  66 H66           -0.1826    -4.1817    -2.5832 H       
  67 H67           -4.5230    -6.4545    -4.5156 H       
  68 H68           -3.0760    -7.1996    -3.7941 H       
  69 H69           -4.7838    -8.9085    -4.4024 H       
  70 H70           -4.4908    -8.8685    -2.6468 H       
  71 H71           -7.5641    -7.0169    -1.9111 H       
  72 H72           -6.1171    -7.7620    -1.1895 H       
  73 H73           -5.8563    -5.3080    -1.3027 H       
  74 H74           -6.1493    -5.3481    -3.0583 H       
  75 H75           -6.7195    -9.8893    -2.3600 H       
  76 H76           -8.1444    -9.0445    -3.0115 H       
  77 H77           -6.9937    -9.8322    -4.1178 H       
  78 H78            3.4433    -1.2561    -1.9867 H       
  79 H79            5.3276    -3.9048     1.7210 H       
  80 H80            4.5787    -6.4579     3.1443 H       
  81 H81            4.2671    -8.8236     2.5452 H       
  82 H82            0.1503    -8.0660     1.6861 H       
  83 H83            3.9462   -10.3817     1.1855 H       
  84 H84            3.5248   -10.7530     2.8745 H       
  85 H85            2.8880   -11.7643     1.5554 H       
  86 H86           -0.8963    -6.4622     0.8394 H       
  87 H87           -1.3175    -6.8341     2.5284 H       
  88 H88           -1.7347    -4.1480     1.1400 H       
  89 H89           -3.0071    -5.3400     1.4980 H       
  90 H90           -2.1559    -4.5199     2.8289 H       
  91 H91            2.9969    -0.4574    -4.2549 H       
  92 H92            1.3387    -0.9497    -4.6748 H       
  93 H93            1.9792     0.6062    -5.2555 H       
  94 H94            0.4121     0.8589    -3.3088 H       
  95 H95            2.0454     1.4792    -2.9689 H       
@<TRIPOS>BOND
   1    1   31 1
   2    2    3 ar
   3    2    7 ar
   4    2   52 1
   5    3    4 ar
   6    3   46 1
   7    4    5 ar
   8    4    8 1
   9    5    6 ar
  10    5   53 1
  11    6    7 ar
  12    6   54 1
  13    7   55 1
  14    8    9 1
  15    8   10 1
  16    8   28 1
  17    9   26 2
  18    9   27 am
  19   10   11 1
  20   10   56 1
  21   10   57 1
  22   11   12 am
  23   11   13 2
  24   12   14 1
  25   12   18 1
  26   14   15 1
  27   14   58 1
  28   14   59 1
  29   15   16 1
  30   15   60 1
  31   15   61 1
  32   16   17 1
  33   16   19 1
  34   16   62 1
  35   17   18 1
  36   17   63 1
  37   17   64 1
  38   18   65 1
  39   18   66 1
  40   19   20 1
  41   19   24 1
  42   20   21 1
  43   20   67 1
  44   20   68 1
  45   21   22 1
  46   21   69 1
  47   21   70 1
  48   22   23 1
  49   22   25 1
  50   23   24 1
  51   23   71 1
  52   23   72 1
  53   24   73 1
  54   24   74 1
  55   25   75 1
  56   25   76 1
  57   25   77 1
  58   27   49 am
  59   27   29 1
  60   28   29 ar
  61   28   30 ar
  62   29   33 ar
  63   30   31 ar
  64   30   78 1
  65   31   32 ar
  66   32   33 ar
  67   32   34 1
  68   33   79 1
  69   35   36 ar
  70   35   37 ar
  71   35   49 1
  72   36   42 1
  73   36   40 ar
  74   37   38 ar
  75   37   80 1
  76   38   39 ar
  77   38   81 1
  78   39   40 ar
  79   39   41 1
  80   40   82 1
  81   41   43 1
  82   42   44 1
  83   43   83 1
  84   43   84 1
  85   43   85 1
  86   44   45 1
  87   44   86 1
  88   44   87 1
  89   45   88 1
  90   45   89 1
  91   45   90 1
  92   46   48 1
  93   47   48 1
  94   47   91 1
  95   47   92 1
  96   47   93 1
  97   48   94 1
  98   48   95 1
  99   49   50 2
 100   49   51 2

#	End of record

