#	Name: ASD03740212
#	Creating user name:	WinNT
#	Creation time:	15. 06. 2019 20:46

#	Modifying user name:	WinNT
#	Modification time:	15. 06. 2019 20:46

#	Program:	/corina/corina34_cracker 3.40 0067  02.08.2006

@<TRIPOS>MOLECULE
ASD03740212
  49   51    0    0    0
SMALL
NO_CHARGES


@<TRIPOS>ATOM
   1 C1            -0.2540     1.2008    -0.9693 C.ar    
   2 C2            -0.1864    -0.1581    -0.7419 C.ar    
   3 C3             1.0542    -0.7985    -0.7225 C.ar    
   4 C4             2.2186    -0.0576    -0.9338 C.ar    
   5 C5             2.1365     1.3007    -1.1601 C.ar    
   6 C6             0.9038     1.9290    -1.1779 C.ar    
   7 S7             0.8082     3.6644    -1.4676 S.o2    
   8 O8             1.9922     4.0201    -2.1682 O.2     
   9 O9            -0.4972     3.9160    -1.9696 O.2     
  10 N10            0.8945     4.4130     0.0070 N.am    
  11 C11            2.0495     4.3198     0.7639 C.ar    
  12 N12            1.1287    -2.1481    -0.4967 N.2     
  13 N13            2.2319    -2.7140    -0.4800 N.2     
  14 C14            2.3114    -4.1568    -0.2386 C.3     
  15 C15            3.7395    -4.6135    -0.3903 C.2     
  16 C16            1.8329    -4.4596     1.1579 C.2     
  17 C17            1.4927    -5.8750     1.5476 C.3     
  18 O18            1.7221    -3.5680     1.9648 O.2     
  19 N19            4.0543    -5.9119    -0.2126 N.am    
  20 O20            4.6056    -3.8126    -0.6724 O.2     
  21 C21            5.3616    -6.3535    -0.4475 C.ar    
  22 C22            7.9461    -7.2264    -0.9128 C.ar    
  23 C23            6.8743    -8.0447    -1.2234 C.ar    
  24 C24            5.5834    -7.6115    -0.9922 C.ar    
  25 C25            6.4388    -5.5323    -0.1416 C.ar    
  26 C26            7.7276    -5.9703    -0.3748 C.ar    
  27 Cl27           9.5675    -7.7741    -1.2042 Cl      
  28 N28            2.9564     3.4063     0.4500 N.ar    
  29 N29            2.2245     5.1497     1.7817 N.ar    
  30 C30            3.3170     5.0875     2.5248 C.ar    
  31 C31            4.2840     4.1400     2.2273 C.ar    
  32 C32            4.0713     3.2910     1.1525 C.ar    
  33 H33           -1.2133     1.6966    -0.9890 H       
  34 H34           -1.0908    -0.7253    -0.5788 H       
  35 H35            3.1814    -0.5467    -0.9197 H       
  36 H36            3.0364     1.8750    -1.3236 H       
  37 H37            0.1356     4.9169     0.3403 H       
  38 H38            1.6839    -4.6809    -0.9594 H       
  39 H39            1.6535    -6.5351     0.6952 H       
  40 H40            2.1303    -6.1875     2.3745 H       
  41 H41            0.4481    -5.9262     1.8547 H       
  42 H42            3.3750    -6.5402     0.0780 H       
  43 H43            7.0475    -9.0245    -1.6435 H       
  44 H44            4.7473    -8.2507    -1.2345 H       
  45 H45            6.2688    -4.5517     0.2780 H       
  46 H46            8.5659    -5.3335    -0.1332 H       
  47 H47            3.4542     5.7669     3.3530 H       
  48 H48            5.1854     4.0675     2.8177 H       
  49 H49            4.8068     2.5445     0.8918 H       
@<TRIPOS>BOND
   1    1    2 ar
   2    1    6 ar
   3    1   33 1
   4    2    3 ar
   5    2   34 1
   6    3    4 ar
   7    3   12 1
   8    4    5 ar
   9    4   35 1
  10    5    6 ar
  11    5   36 1
  12    6    7 1
  13    7    8 2
  14    7    9 2
  15    7   10 am
  16   10   11 1
  17   10   37 1
  18   11   29 ar
  19   11   28 ar
  20   12   13 2
  21   13   14 1
  22   14   15 1
  23   14   16 1
  24   14   38 1
  25   15   19 am
  26   15   20 2
  27   16   17 1
  28   16   18 2
  29   17   39 1
  30   17   40 1
  31   17   41 1
  32   19   21 1
  33   19   42 1
  34   21   25 ar
  35   21   24 ar
  36   22   23 ar
  37   22   26 ar
  38   22   27 1
  39   23   24 ar
  40   23   43 1
  41   24   44 1
  42   25   26 ar
  43   25   45 1
  44   26   46 1
  45   28   32 ar
  46   29   30 ar
  47   30   31 ar
  48   30   47 1
  49   31   32 ar
  50   31   48 1
  51   32   49 1

#	End of record

