#	Name: ASD01914453
#	Creating user name:	WinNT
#	Creation time:	15. 06. 2019 20:03

#	Modifying user name:	WinNT
#	Modification time:	15. 06. 2019 20:03

#	Program:	/corina/corina34_cracker 3.40 0067  02.08.2006

@<TRIPOS>MOLECULE
ASD01914453
  46   47    0    0    0
SMALL
NO_CHARGES


@<TRIPOS>ATOM
   1 C1             5.6238    -2.0510    -3.4729 C.ar    
   2 C2             5.8355    -0.7653    -3.0089 C.ar    
   3 C3             4.7711    -2.9024    -2.7951 C.ar    
   4 C4             4.1267    -2.4714    -1.6515 C.ar    
   5 C5             4.3363    -1.1816    -1.1823 C.ar    
   6 C6             5.1948    -0.3278    -1.8657 C.ar    
   7 N7             3.6857    -0.7425    -0.0261 N.am    
   8 C8             4.2633    -1.0227     1.2907 C.3     
   9 S9             2.2617     0.0946    -0.1446 S.o2    
  10 C10            4.6718     0.2716     1.9458 C.2     
  11 N11            5.1795     0.2641     3.1942 N.am    
  12 O12            4.5438     1.3199     1.3494 O.2     
  13 C13            5.4676     1.4718     3.8396 C.ar    
  14 C14            0.9786    -1.1872    -0.1063 C.3     
  15 O15            2.2174     0.8800     1.0388 O.2     
  16 O16            2.3193     0.7044    -1.4268 O.2     
  17 Cl17           5.4612     1.2858    -1.2834 Cl      
  18 C18            5.2796     1.5902     5.2103 C.ar    
  19 C19            5.5647     2.7835     5.8451 C.ar    
  20 C20            6.0369     3.8599     5.1175 C.ar    
  21 C21            6.2256     3.7457     3.7509 C.ar    
  22 C22            5.9475     2.5525     3.1113 C.ar    
  23 C23            3.2244    -1.7302     2.1632 C.3     
  24 Cl24           6.8188     5.0999     2.8410 Cl      
  25 C25            2.9234    -3.1117     1.5788 C.3     
  26 C26            1.8062    -3.7749     2.3869 C.3     
  27 H27            6.1224    -2.3892    -4.3692 H       
  28 H28            6.5026    -0.1029    -3.5406 H       
  29 H29            4.6082    -3.9056    -3.1603 H       
  30 H30            3.4602    -3.1371    -1.1232 H       
  31 H31            5.1376    -1.6632     1.1752 H       
  32 H32            5.3451    -0.5784     3.6454 H       
  33 H33            0.9496    -1.6427     0.8835 H       
  34 H34            0.0103    -0.7387    -0.3284 H       
  35 H35            1.2051    -1.9503    -0.8509 H       
  36 H36            4.9104     0.7500     5.7796 H       
  37 H37            5.4181     2.8758     6.9111 H       
  38 H38            6.2587     4.7918     5.6162 H       
  39 H39            6.0947     2.4634     2.0451 H       
  40 H40            3.6145    -1.8408     3.1750 H       
  41 H41            2.3089    -1.1393     2.1894 H       
  42 H42            2.6076    -3.0062     0.5409 H       
  43 H43            3.8206    -3.7290     1.6247 H       
  44 H44            2.1220    -3.8804     3.4248 H       
  45 H45            0.9090    -3.1576     2.3410 H       
  46 H46            1.5917    -4.7591     1.9705 H       
@<TRIPOS>BOND
   1    1    2 ar
   2    1    3 ar
   3    1   27 1
   4    2    6 ar
   5    2   28 1
   6    3    4 ar
   7    3   29 1
   8    4    5 ar
   9    4   30 1
  10    5    6 ar
  11    5    7 1
  12    6   17 1
  13    7    8 1
  14    7    9 am
  15    8   10 1
  16    8   23 1
  17    8   31 1
  18    9   14 1
  19    9   15 2
  20    9   16 2
  21   10   11 am
  22   10   12 2
  23   11   13 1
  24   11   32 1
  25   13   18 ar
  26   13   22 ar
  27   14   33 1
  28   14   34 1
  29   14   35 1
  30   18   19 ar
  31   18   36 1
  32   19   20 ar
  33   19   37 1
  34   20   21 ar
  35   20   38 1
  36   21   22 ar
  37   21   24 1
  38   22   39 1
  39   23   25 1
  40   23   40 1
  41   23   41 1
  42   25   26 1
  43   25   42 1
  44   25   43 1
  45   26   44 1
  46   26   45 1
  47   26   46 1

#	End of record

