#	Name: ASD01208944
#	Creating user name:	WinNT
#	Creation time:	15. 06. 2019 19:10

#	Modifying user name:	WinNT
#	Modification time:	15. 06. 2019 19:10

#	Program:	/corina/corina34_cracker 3.40 0067  02.08.2006

@<TRIPOS>MOLECULE
ASD01208944
  55   59    0    0    0
SMALL
NO_CHARGES


@<TRIPOS>ATOM
   1 C1            -2.2378     1.6176    -0.8920 C.3     
   2 C2            -2.1828     0.0972    -1.0697 C.3     
   3 C3            -1.4275    -0.2278    -2.3621 C.3     
   4 C4            -2.1182     0.4698    -3.5368 C.3     
   5 C5            -2.8972     2.2440    -2.1235 C.3     
   6 C6            -1.4549    -0.5312     0.1203 C.3     
   7 C7            -1.5304    -2.0559     0.0171 C.3     
   8 C8            -0.7065    -2.6752     1.1166 C.2     
   9 N9             0.6325    -2.5222     1.1230 N.am    
  10 C10            1.4022    -3.1746     2.0798 C.2     
  11 N11           -2.9245    -2.4859     0.1502 N.pl3   
  12 N12            2.6921    -3.0956     2.1742 N.2     
  13 C13            3.2637    -3.7832     3.1461 C.2     
  14 C14            2.4143    -4.4760     3.9089 C.2     
  15 S15            0.7833    -4.1914     3.3069 S.3     
  16 C16           -3.6357    -3.1808    -0.7929 C.ar    
  17 C17           -4.9235    -3.3853    -0.2602 C.ar    
  18 C18           -4.9242    -2.7642     1.0604 C.2     
  19 N19           -3.7412    -2.2582     1.2627 N.2     
  20 O20           -1.2485    -3.3113     1.9956 O.2     
  21 O21           -2.1632     1.8773    -3.2936 O.3     
  22 Cl22           2.8420    -5.4768     5.2614 Cl      
  23 C23           -3.3345    -3.6705    -2.0611 C.ar    
  24 C24           -4.2866    -4.3422    -2.7746 C.ar    
  25 C25           -5.5573    -4.5448    -2.2509 C.ar    
  26 C26           -5.8808    -4.0771    -1.0100 C.ar    
  27 S27           -6.7624    -5.4151    -3.1969 S.o2    
  28 O28           -8.0064    -4.9259    -2.7150 O.2     
  29 O29           -6.3662    -5.2071    -4.5456 O.2     
  30 C30           -6.5371    -7.1530    -2.7282 C.3     
  31 C31           -7.3691    -8.1991    -3.4728 C.3     
  32 C32           -5.8686    -8.0785    -3.7468 C.3     
  33 H33           -2.8212     1.8597    -0.0037 H       
  34 H34           -1.2261     2.0083    -0.7822 H       
  35 H35           -3.1961    -0.2998    -1.1300 H       
  36 H36           -0.3995     0.1256    -2.2820 H       
  37 H37           -1.4315    -1.3056    -2.5251 H       
  38 H38           -1.5603     0.2770    -4.4531 H       
  39 H39           -3.1331     0.0864    -3.6415 H       
  40 H40           -3.9223     1.8837    -2.2097 H       
  41 H41           -2.9004     3.3292    -2.0217 H       
  42 H42           -0.4109    -0.2179     0.1143 H       
  43 H43           -1.9265    -0.2060     1.0476 H       
  44 H44           -1.1428    -2.3742    -0.9506 H       
  45 H45            1.0593    -1.9570     0.4603 H       
  46 H46            4.3312    -3.7852     3.3104 H       
  47 H47           -5.7557    -2.7337     1.7489 H       
  48 H48           -2.3505    -3.5194    -2.4799 H       
  49 H49           -4.0485    -4.7199    -3.7580 H       
  50 H50           -6.8709    -4.2386    -0.6100 H       
  51 H51           -6.3303    -7.3323    -1.6731 H       
  52 H52           -7.7093    -9.0668    -2.9076 H       
  53 H53           -8.0518    -7.8431    -4.2443 H       
  54 H54           -5.5642    -7.6431    -4.6986 H       
  55 H55           -5.2218    -8.8669    -3.3619 H       
@<TRIPOS>BOND
   1    1    2 1
   2    1    5 1
   3    1   33 1
   4    1   34 1
   5    2    3 1
   6    2    6 1
   7    2   35 1
   8    3    4 1
   9    3   36 1
  10    3   37 1
  11    4   21 1
  12    4   38 1
  13    4   39 1
  14    5   21 1
  15    5   40 1
  16    5   41 1
  17    6    7 1
  18    6   42 1
  19    6   43 1
  20    7    8 1
  21    7   11 1
  22    7   44 1
  23    8    9 am
  24    8   20 2
  25    9   10 1
  26    9   45 1
  27   10   12 2
  28   10   15 1
  29   11   16 1
  30   11   19 1
  31   12   13 1
  32   13   14 2
  33   13   46 1
  34   14   15 1
  35   14   22 1
  36   16   17 ar
  37   16   23 ar
  38   17   18 1
  39   17   26 ar
  40   18   19 2
  41   18   47 1
  42   23   24 ar
  43   23   48 1
  44   24   25 ar
  45   24   49 1
  46   25   26 ar
  47   25   27 1
  48   26   50 1
  49   27   28 2
  50   27   29 2
  51   27   30 1
  52   30   31 1
  53   30   32 1
  54   30   51 1
  55   31   32 1
  56   31   52 1
  57   31   53 1
  58   32   54 1
  59   32   55 1

#	End of record

