#	Name: ASD00170468
#	Creating user name:	WinNT
#	Creation time:	15. 06. 2019 18:32

#	Modifying user name:	WinNT
#	Modification time:	15. 06. 2019 18:32

#	Program:	/corina/corina34_cracker 3.40 0067  02.08.2006

@<TRIPOS>MOLECULE
ASD00170468
  28   31    0    0    0
SMALL
NO_CHARGES


@<TRIPOS>ATOM
   1 C1            -0.0169     1.3928     0.0097 C.ar    
   2 C2             0.0021    -0.0041     0.0020 C.ar    
   3 C3             1.2240    -0.6840    -0.0133 C.ar    
   4 C4             2.4000     0.0274    -0.0207 C.ar    
   5 C5             2.3839     1.4193    -0.0130 C.ar    
   6 C6             1.1643     2.1000     0.0022 C.ar    
   7 C7             3.8482    -0.3906    -0.0367 C.3     
   8 C8             4.6437     0.8966    -0.0374 C.2     
   9 C9             3.7873     1.9362    -0.0236 C.2     
  10 S10            6.2974     1.5076    -0.0499 S.3     
  11 C11            5.6894     3.1581    -0.0352 C.2     
  12 N12            4.3995     3.1413    -0.0234 N.2     
  13 C13           -1.2659    -0.7613     0.0105 C.2     
  14 N14            6.4743     4.2996    -0.0366 N.pl3   
  15 O15           -1.3855    -2.1029     0.0050 O.3     
  16 C16           -2.6869    -2.4352     0.0159 C.2     
  17 C17           -3.4208    -1.3052     0.0287 C.2     
  18 C18           -2.5157    -0.2251     0.0312 C.2     
  19 H19           -0.9600     1.9190     0.0170 H       
  20 H20            1.2436    -1.7638    -0.0189 H       
  21 H21            1.1480     3.1799     0.0078 H       
  22 H22            4.0810    -0.9768     0.8523 H       
  23 H23            4.0640    -0.9672    -0.9362 H       
  24 H24            7.4413     4.2233    -0.0463 H       
  25 H25            6.0570     5.1752    -0.0280 H       
  26 H26           -3.0799    -3.4411     0.0144 H       
  27 H27           -4.4988    -1.2397     0.0394 H       
  28 H28           -2.7662     0.8254     0.0410 H       
@<TRIPOS>BOND
   1    1    2 ar
   2    1    6 ar
   3    1   19 1
   4    2    3 ar
   5    2   13 1
   6    3    4 ar
   7    3   20 1
   8    4    5 ar
   9    4    7 1
  10    5    6 ar
  11    5    9 1
  12    6   21 1
  13    7    8 1
  14    7   22 1
  15    7   23 1
  16    8    9 2
  17    8   10 1
  18    9   12 1
  19   10   11 1
  20   11   12 2
  21   11   14 1
  22   13   15 1
  23   13   18 2
  24   14   24 1
  25   14   25 1
  26   15   16 1
  27   16   17 2
  28   16   26 1
  29   17   18 1
  30   17   27 1
  31   18   28 1

#	End of record

