#	Name: ASD00310116
#	Creating user name:	WinNT
#	Creation time:	15. 06. 2019 18:33

#	Modifying user name:	WinNT
#	Modification time:	15. 06. 2019 18:33

#	Program:	/corina/corina34_cracker 3.40 0067  02.08.2006

@<TRIPOS>MOLECULE
ASD00310116
  52   55    0    0    0
SMALL
NO_CHARGES


@<TRIPOS>ATOM
   1 N1            -0.0029     1.1724     0.0048 N.pl3   
   2 C2             0.0354    -0.1811    -0.0192 C.2     
   3 C3             1.3319    -0.6060    -0.0399 C.2     
   4 C4             2.1694     0.6087    -0.0273 C.ar    
   5 C5             3.5417     0.8335    -0.0375 C.ar    
   6 C6             4.0235     2.1361    -0.0197 C.ar    
   7 C7             3.1301     3.2126     0.0082 C.ar    
   8 C8             1.7717     2.9923     0.0183 C.ar    
   9 C9             1.2753     1.6916     0.0007 C.ar    
  10 C10            1.8006    -1.9961    -0.0685 C.2     
  11 O11            2.9926    -2.2357    -0.0845 O.2     
  12 O12            0.9094    -3.0080    -0.0770 O.3     
  13 Cl13           3.7398     4.8379     0.0309 Cl      
  14 C14            5.4859     2.3861    -0.0298 C.ar    
  15 C15            6.0356     3.2835    -0.9433 C.ar    
  16 C16            7.3967     3.5122    -0.9483 C.ar    
  17 C17            8.2147     2.8526    -0.0488 C.ar    
  18 C18            7.6745     1.9608     0.8601 C.ar    
  19 C19            6.3141     1.7287     0.8778 C.ar    
  20 N20           12.3465     2.7251     0.8637 N.am    
  21 C21           11.6377     3.9442     1.2760 C.3     
  22 C22           10.1335     3.6552     1.3018 C.3     
  23 C23            9.7002     3.1062    -0.0595 C.3     
  24 C24           10.4391     1.7960    -0.3416 C.3     
  25 C25           11.9467     2.0639    -0.3860 C.3     
  26 C26           13.3482     2.2259     1.6147 C.2     
  27 O27           13.8563     1.1649     1.3199 O.2     
  28 C28           13.8367     2.9862     2.8206 C.3     
  29 C29            1.4445    -4.3575    -0.1056 C.3     
  30 H30           -0.8151     1.7025     0.0186 H       
  31 H31           -0.8301    -0.8271    -0.0213 H       
  32 H32            4.2287     0.0004    -0.0587 H       
  33 H33            1.0898     3.8296     0.0399 H       
  34 H34            5.3979     3.7988    -1.6462 H       
  35 H35            7.8239     4.2072    -1.6560 H       
  36 H36            8.3178     1.4485     1.5601 H       
  37 H37            5.8927     1.0356     1.5909 H       
  38 H38           11.9698     4.2413     2.2708 H       
  39 H39           11.8439     4.7447     0.5655 H       
  40 H40            9.9177     2.9193     2.0763 H       
  41 H41            9.5897     4.5760     1.5125 H       
  42 H42            9.9391     3.8322    -0.8366 H       
  43 H43           10.2204     1.0775     0.4484 H       
  44 H44           10.1127     1.3935    -1.3006 H       
  45 H45           12.1781     2.7111    -1.2320 H       
  46 H46           12.4827     1.1203    -0.4878 H       
  47 H47           13.3348     3.9525     2.8688 H       
  48 H48           13.6158     2.4165     3.7233 H       
  49 H49           14.9131     3.1393     2.7420 H       
  50 H50            2.0472    -4.4904    -1.0040 H       
  51 H51            2.0649    -4.5211     0.7756 H       
  52 H52            0.6232    -5.0741    -0.1097 H       
@<TRIPOS>BOND
   1    1    2 1
   2    1    9 1
   3    1   30 1
   4    2    3 2
   5    2   31 1
   6    3    4 1
   7    3   10 1
   8    4    5 ar
   9    4    9 ar
  10    5    6 ar
  11    5   32 1
  12    6    7 ar
  13    6   14 1
  14    7    8 ar
  15    7   13 1
  16    8    9 ar
  17    8   33 1
  18   10   11 2
  19   10   12 1
  20   12   29 1
  21   14   15 ar
  22   14   19 ar
  23   15   16 ar
  24   15   34 1
  25   16   17 ar
  26   16   35 1
  27   17   18 ar
  28   17   23 1
  29   18   19 ar
  30   18   36 1
  31   19   37 1
  32   20   21 1
  33   20   25 1
  34   20   26 am
  35   21   22 1
  36   21   38 1
  37   21   39 1
  38   22   23 1
  39   22   40 1
  40   22   41 1
  41   23   24 1
  42   23   42 1
  43   24   25 1
  44   24   43 1
  45   24   44 1
  46   25   45 1
  47   25   46 1
  48   26   27 2
  49   26   28 1
  50   28   47 1
  51   28   48 1
  52   28   49 1
  53   29   50 1
  54   29   51 1
  55   29   52 1

#	End of record

