#	Name: ASD00842149
#	Creating user name:	WinNT
#	Creation time:	15. 06. 2019 18:43

#	Modifying user name:	WinNT
#	Modification time:	15. 06. 2019 18:43

#	Program:	/corina/corina34_cracker 3.40 0067  02.08.2006

@<TRIPOS>MOLECULE
ASD00842149
  95  100    0    0    0
SMALL
NO_CHARGES


@<TRIPOS>ATOM
   1 F1             6.1144    -1.8010    -1.9432 F       
   2 C2             1.0694     1.5477    -0.5284 C.ar    
   3 C3             1.3548     0.2040    -0.7207 C.ar    
   4 C4             1.2589    -0.6823     0.3426 C.ar    
   5 C5             0.8797    -0.2247     1.5895 C.ar    
   6 C6             0.5953     1.1153     1.7785 C.ar    
   7 C7             0.6905     2.0004     0.7208 C.ar    
   8 C8             1.5678    -2.1429     0.1371 C.3     
   9 C9             1.2692    -2.9300     1.3951 C.2     
  10 C10            0.7688    -2.6972    -1.0441 C.3     
  11 C11           -0.6977    -2.4228    -0.8316 C.2     
  12 N12           -1.6070    -2.9100    -1.6989 N.am    
  13 O13           -1.0596    -1.7637     0.1199 O.2     
  14 C14           -3.0309    -2.5634    -1.5738 C.3     
  15 C15           -3.5313    -2.0632    -2.9331 C.3     
  16 N16           -3.2239    -3.0644    -3.9631 N.3     
  17 C17           -1.7742    -3.2535    -4.1067 C.3     
  18 C18           -1.2009    -3.7976    -2.7992 C.3     
  19 C19           -3.8375    -2.7032    -5.2481 C.3     
  20 C20           -3.3949    -3.6985    -6.3242 C.3     
  21 C21           -4.0847    -3.3535    -7.6460 C.3     
  22 N22           -5.5413    -3.4119    -7.4692 N.3     
  23 C23           -5.9952    -2.4315    -6.4745 C.3     
  24 C24           -5.3624    -2.7491    -5.1178 C.3     
  25 C25           -6.2351    -3.2220    -8.7501 C.3     
  26 O26            0.1887    -3.0424     1.9346 O.2     
  27 N27            2.4249    -3.4811     1.8021 N.am    
  28 C28            3.0502    -2.3451    -0.0811 C.ar    
  29 C29            3.4905    -3.1581     0.9584 C.ar    
  30 C30            3.9211    -1.8919    -1.0473 C.ar    
  31 C31            5.2587    -2.2436    -0.9960 C.ar    
  32 C32            5.7193    -3.0603     0.0417 C.ar    
  33 C33            4.8323    -3.5159     1.0166 C.ar    
  34 C34            2.2929    -6.0987     2.6415 C.ar    
  35 C35            1.0488    -6.4805     2.1614 C.ar    
  36 C36            3.3167    -7.0235     2.7165 C.ar    
  37 C37            3.1021    -8.3282     2.3130 C.ar    
  38 C38            1.8628    -8.7114     1.8340 C.ar    
  39 C39            0.8359    -7.7908     1.7575 C.ar    
  40 H40            1.6976    -9.7313     1.5194 H       
  41 O41            0.0401    -5.5729     2.0871 O.3     
  42 C42           -1.2140    -6.0366     1.5827 C.3     
  43 C43           -2.2183    -4.8824     1.5736 C.3     
  44 C44           -7.7227    -3.5344    -8.5755 C.3     
  45 O45            1.7272    -0.2438    -1.9485 O.3     
  46 C46            2.2433     0.0479    -4.2914 C.3     
  47 C47            1.6955     0.7005    -3.0206 C.3     
  48 S48            2.5695    -4.4341     3.1486 S.o2    
  49 O49            3.9305    -4.3577     3.5500 O.2     
  50 O50            1.4869    -4.0895     4.0022 O.2     
  51 C51            7.1016    -3.4292     0.1028 C.1     
  52 N52            8.1982    -3.7219     0.1512 N.1     
  53 H53            1.1475     2.2403    -1.3534 H       
  54 H54            0.8050    -0.9141     2.4174 H       
  55 H55            0.2983     1.4710     2.7540 H       
  56 H56            0.4678     3.0465     0.8709 H       
  57 H57            1.0990    -2.2151    -1.9642 H       
  58 H58            0.9302    -3.7726    -1.1192 H       
  59 H59           -3.5978    -3.4458    -1.2770 H       
  60 H60           -3.1524    -1.7785    -0.8274 H       
  61 H61           -4.6090    -1.9063    -2.8886 H       
  62 H62           -3.0364    -1.1239    -3.1796 H       
  63 H63           -1.5776    -3.9597    -4.9133 H       
  64 H64           -1.3038    -2.2975    -4.3369 H       
  65 H65           -0.1132    -3.8311    -2.8622 H       
  66 H66           -1.5910    -4.7989    -2.6170 H       
  67 H67           -3.5252    -1.6980    -5.5311 H       
  68 H68           -2.3139    -3.6399    -6.4517 H       
  69 H69           -3.6719    -4.7084    -6.0219 H       
  70 H70           -3.7963    -2.3487    -7.9547 H       
  71 H71           -3.7827    -4.0689    -8.4108 H       
  72 H72           -5.6979    -1.4310    -6.7887 H       
  73 H73           -7.0808    -2.4774    -6.3886 H       
  74 H74           -5.6704    -3.7440    -4.7965 H       
  75 H75           -5.6872    -2.0120    -4.3833 H       
  76 H76           -6.1167    -2.1892    -9.0778 H       
  77 H77           -5.8085    -3.8915    -9.4970 H       
  78 H78            3.5595    -1.2615    -1.8462 H       
  79 H79            5.1883    -4.1466     1.8178 H       
  80 H80            4.2855    -6.7267     3.0903 H       
  81 H81            3.9039    -9.0494     2.3717 H       
  82 H82           -0.1321    -8.0907     1.3840 H       
  83 H83           -1.0814    -6.4108     0.5676 H       
  84 H84           -1.5877    -6.8384     2.2196 H       
  85 H85           -2.3509    -4.5082     2.5888 H       
  86 H86           -1.8445    -4.0806     0.9368 H       
  87 H87           -3.1748    -5.2360     1.1889 H       
  88 H88           -7.8410    -4.5672    -8.2478 H       
  89 H89           -8.1493    -2.8650    -7.8285 H       
  90 H90           -8.2374    -3.3936    -9.5259 H       
  91 H91            2.3010     0.7918    -5.0860 H       
  92 H92            3.2381    -0.3518    -4.0948 H       
  93 H93            1.5808    -0.7613    -4.5988 H       
  94 H94            0.6682     1.0222    -3.1912 H       
  95 H95            2.3085     1.5640    -2.7624 H       
@<TRIPOS>BOND
   1    1   31 1
   2    2    3 ar
   3    2    7 ar
   4    2   53 1
   5    3    4 ar
   6    3   45 1
   7    4    5 ar
   8    4    8 1
   9    5    6 ar
  10    5   54 1
  11    6    7 ar
  12    6   55 1
  13    7   56 1
  14    8    9 1
  15    8   10 1
  16    8   28 1
  17    9   26 2
  18    9   27 am
  19   10   11 1
  20   10   57 1
  21   10   58 1
  22   11   12 am
  23   11   13 2
  24   12   14 1
  25   12   18 1
  26   14   15 1
  27   14   59 1
  28   14   60 1
  29   15   16 1
  30   15   61 1
  31   15   62 1
  32   16   17 1
  33   16   19 1
  34   17   18 1
  35   17   63 1
  36   17   64 1
  37   18   65 1
  38   18   66 1
  39   19   20 1
  40   19   24 1
  41   19   67 1
  42   20   21 1
  43   20   68 1
  44   20   69 1
  45   21   22 1
  46   21   70 1
  47   21   71 1
  48   22   23 1
  49   22   25 1
  50   23   24 1
  51   23   72 1
  52   23   73 1
  53   24   74 1
  54   24   75 1
  55   25   44 1
  56   25   76 1
  57   25   77 1
  58   27   48 am
  59   27   29 1
  60   28   29 ar
  61   28   30 ar
  62   29   33 ar
  63   30   31 ar
  64   30   78 1
  65   31   32 ar
  66   32   33 ar
  67   32   51 1
  68   33   79 1
  69   34   35 ar
  70   34   36 ar
  71   34   48 1
  72   35   41 1
  73   35   39 ar
  74   36   37 ar
  75   36   80 1
  76   37   38 ar
  77   37   81 1
  78   38   39 ar
  79   38   40 1
  80   39   82 1
  81   41   42 1
  82   42   43 1
  83   42   83 1
  84   42   84 1
  85   43   85 1
  86   43   86 1
  87   43   87 1
  88   44   88 1
  89   44   89 1
  90   44   90 1
  91   45   47 1
  92   46   47 1
  93   46   91 1
  94   46   92 1
  95   46   93 1
  96   47   94 1
  97   47   95 1
  98   48   49 2
  99   48   50 2
 100   51   52 3

#	End of record

