#	Name: ASD03092327
#	Creating user name:	WinNT
#	Creation time:	15. 06. 2019 20:32

#	Modifying user name:	WinNT
#	Modification time:	15. 06. 2019 20:32

#	Program:	/corina/corina34_cracker 3.40 0067  02.08.2006

@<TRIPOS>MOLECULE
ASD03092327
  62   65    0    0    0
SMALL
NO_CHARGES


@<TRIPOS>ATOM
   1 C1             0.3381     1.9856     0.1444 C.2     
   2 C2             0.5502     0.5257     0.2226 C.ar    
   3 C3             1.8463     0.0054     0.2342 C.ar    
   4 C4             2.0385    -1.3573     0.3078 C.ar    
   5 C5             0.9478    -2.2115     0.3699 C.ar    
   6 C6            -0.3409    -1.7004     0.3587 C.ar    
   7 C7            -0.5443    -0.3386     0.2911 C.ar    
   8 O8             1.2927     2.7364     0.0899 O.2     
   9 N9            -0.9137     2.4847     0.1277 N.am    
  10 C10            3.4364    -1.9201     0.3204 C.3     
  11 F11            4.3614    -0.8730     0.2494 F       
  12 F12            3.6381    -2.6412     1.5022 F       
  13 F13            3.6073    -2.7687    -0.7786 F       
  14 F14            1.1417    -3.5466     0.4410 F       
  15 C15           -1.1240     3.9325     0.0501 C.3     
  16 S16           -4.9831     4.7264    -0.6389 S.3     
  17 C17           -4.5795     4.5785     1.0156 C.2     
  18 N18           -3.3130     4.3217     1.1493 N.2     
  19 C19           -2.6021     4.2259     0.0467 C.2     
  20 C20           -3.3086     4.4126    -1.0878 C.2     
  21 C21           -2.5481     5.2840    -4.6608 C.ar    
  22 C22           -3.0704     5.3709    -3.3885 C.ar    
  23 C23           -2.7731     4.3622    -2.4622 C.ar    
  24 C24           -1.9528     3.3047    -2.8774 C.ar    
  25 C25           -1.4745     3.2983    -4.1697 C.ar    
  26 N26           -1.7790     4.2696    -5.0105 N.ar    
  27 C27           -0.5913     2.1672    -4.6296 C.3     
  28 C28           -2.8648     6.3585    -5.6689 C.3     
  29 N29           -5.4733     4.7133     2.0623 N.3     
  30 C30           -6.8265     5.0021     1.5656 C.3     
  31 C31           -7.7691     5.2023     2.7553 C.3     
  32 O32           -7.7340     4.0386     3.5860 O.3     
  33 C33           -6.4312     3.7285     4.0877 C.3     
  34 C34           -5.4751     3.5133     2.9115 C.3     
  35 C35           -6.4987     2.4537     4.9311 C.3     
  36 C36           -9.1947     5.4237     2.2460 C.3     
  37 H37            2.6964     0.6698     0.1852 H       
  38 H38           -1.1868    -2.3701     0.4072 H       
  39 H39           -1.5486     0.0588     0.2869 H       
  40 H40           -1.6754     1.8854     0.1671 H       
  41 H41           -0.6600     4.4137     0.9111 H       
  42 H42           -0.6753     4.3162    -0.8661 H       
  43 H43           -3.6985     6.2039    -3.1094 H       
  44 H44           -1.6990     2.5071    -2.1949 H       
  45 H45           -1.2081     1.3703    -5.0449 H       
  46 H46            0.0960     2.5304    -5.3937 H       
  47 H47           -0.0228     1.7827    -3.7827 H       
  48 H48           -2.1137     7.1462    -5.6085 H       
  49 H49           -2.8611     5.9291    -6.6708 H       
  50 H50           -3.8484     6.7773    -5.4567 H       
  51 H51           -6.8065     5.9085     0.9605 H       
  52 H52           -7.1777     4.1669     0.9596 H       
  53 H53           -7.4487     6.0705     3.3313 H       
  54 H54           -6.0719     4.5538     4.7025 H       
  55 H55           -5.8047     2.6543     2.3270 H       
  56 H56           -4.4686     3.3330     3.2889 H       
  57 H57           -6.8562     1.6288     4.3147 H       
  58 H58           -5.5054     2.2178     5.3132 H       
  59 H59           -7.1824     2.6062     5.7661 H       
  60 H60           -9.5146     4.5542     1.6719 H       
  61 H61           -9.8653     5.5662     3.0935 H       
  62 H62           -9.2200     6.3085     1.6099 H       
@<TRIPOS>BOND
   1    1    2 1
   2    1    8 2
   3    1    9 am
   4    2    3 ar
   5    2    7 ar
   6    3    4 ar
   7    3   37 1
   8    4    5 ar
   9    4   10 1
  10    5    6 ar
  11    5   14 1
  12    6    7 ar
  13    6   38 1
  14    7   39 1
  15    9   15 1
  16    9   40 1
  17   10   11 1
  18   10   12 1
  19   10   13 1
  20   15   19 1
  21   15   41 1
  22   15   42 1
  23   16   17 1
  24   16   20 1
  25   17   18 2
  26   17   29 1
  27   18   19 1
  28   19   20 2
  29   20   23 1
  30   21   22 ar
  31   21   26 ar
  32   21   28 1
  33   22   23 ar
  34   22   43 1
  35   23   24 ar
  36   24   25 ar
  37   24   44 1
  38   25   26 ar
  39   25   27 1
  40   27   45 1
  41   27   46 1
  42   27   47 1
  43   28   48 1
  44   28   49 1
  45   28   50 1
  46   29   30 1
  47   29   34 1
  48   30   31 1
  49   30   51 1
  50   30   52 1
  51   31   32 1
  52   31   36 1
  53   31   53 1
  54   32   33 1
  55   33   34 1
  56   33   35 1
  57   33   54 1
  58   34   55 1
  59   34   56 1
  60   35   57 1
  61   35   58 1
  62   35   59 1
  63   36   60 1
  64   36   61 1
  65   36   62 1

#	End of record

