#	Name: ASD04880404
#	Creating user name:	WinNT
#	Creation time:	15. 06. 2019 20:53

#	Modifying user name:	WinNT
#	Modification time:	15. 06. 2019 20:53

#	Program:	/corina/corina34_cracker 3.40 0067  02.08.2006

@<TRIPOS>MOLECULE
ASD04880404
  64   68    0    0    0
SMALL
NO_CHARGES


@<TRIPOS>ATOM
   1 C1            -0.0119     1.3681    -0.2645 C.ar    
   2 C2             0.0109    -0.0185    -0.3035 C.ar    
   3 C3             1.2264    -0.6993    -0.2920 C.ar    
   4 C4             2.4137     0.0067    -0.2410 C.ar    
   5 C5             2.3911     1.4033    -0.2017 C.ar    
   6 C6             1.1683     2.0793    -0.2139 C.ar    
   7 C7             3.6541     2.1615    -0.1468 C.2     
   8 N8             4.8333     1.6419    -0.1311 N.2     
   9 N9             5.8660     2.5757    -0.0771 N.am    
  10 C10            5.2846     3.9273    -0.0530 C.3     
  11 C11            3.7659     3.6688    -0.1067 C.3     
  12 O12            1.2447    -2.0586    -0.3304 O.3     
  13 C13            7.1824     2.2880    -0.0511 C.2     
  14 C14            9.4063    -0.7421     0.0217 C.ar    
  15 C15            8.9863     0.5701    -0.0709 C.ar    
  16 C16            7.6300     0.8828     0.0478 C.ar    
  17 C17            6.6999    -0.1331     0.2601 C.ar    
  18 C18            7.1306    -1.4551     0.3525 C.ar    
  19 C19            8.4906    -1.7536     0.2319 C.ar    
  20 O20            8.0020     3.1844    -0.1090 O.2     
  21 C21            3.1669     4.2764    -1.3489 C.ar    
  22 C22            2.1257     5.1813    -1.2394 C.ar    
  23 C23            1.5722     5.7412    -2.3719 C.ar    
  24 C24            2.0657     5.3929    -3.6319 C.ar    
  25 C25            3.1175     4.4788    -3.7346 C.ar    
  26 C26            3.6645     3.9310    -2.5931 C.ar    
  27 O27           -1.1556    -0.7147    -0.3528 O.3     
  28 C28            2.5262    -2.6908    -0.3158 C.3     
  29 C29           -2.3652     0.0461    -0.3614 C.3     
  30 C30            1.4958     5.9696    -4.8123 C.1     
  31 C31            1.0287     6.4423    -5.7801 C.1     
  32 C32            0.4589     7.0190    -6.9605 C.ar    
  33 C33            0.9524     6.6707    -8.2206 C.ar    
  34 C34            0.3986     7.2303    -9.3530 C.ar    
  35 C35           -0.6432     8.1345    -9.2436 C.ar    
  36 C36           -1.1367     8.4845    -7.9991 C.ar    
  37 C37           -0.5971     7.9285    -6.8581 C.ar    
  38 C38            6.1820    -2.5054     0.5710 C.1     
  39 N39            5.4294    -3.3385     0.7444 N.1     
  40 H40           -0.9563     1.8919    -0.2781 H       
  41 H41            3.3566    -0.5199    -0.2313 H       
  42 H42            1.1476     3.1587    -0.1839 H       
  43 H43            5.5571     4.4458     0.8662 H       
  44 H44            5.6038     4.4977    -0.9253 H       
  45 H45            3.2810     4.0645     0.7857 H       
  46 H46           10.4557    -0.9786    -0.0749 H       
  47 H47            9.7080     1.3565    -0.2354 H       
  48 H48            5.6502     0.1032     0.3529 H       
  49 H49            8.8259    -2.7777     0.3033 H       
  50 H50            1.7453     5.4496    -0.2649 H       
  51 H51            0.7592     6.4467    -2.2850 H       
  52 H52            3.5037     4.2046    -4.7052 H       
  53 H53            4.4802     3.2274    -2.6706 H       
  54 H54            2.3980    -3.7727    -0.3500 H       
  55 H55            3.1017    -2.3655    -1.1824 H       
  56 H56            3.0563    -2.4164     0.5962 H       
  57 H57           -3.2193    -0.6299    -0.4022 H       
  58 H58           -2.4219     0.6488     0.5450 H       
  59 H59           -2.3772     0.6996    -1.2337 H       
  60 H60            1.7656     5.9654    -8.3074 H       
  61 H61            0.7792     6.9623   -10.3276 H       
  62 H62           -1.0729     8.5695   -10.1338 H       
  63 H63           -1.9497     9.1912    -7.9213 H       
  64 H64           -0.9865     8.1989    -5.8878 H       
@<TRIPOS>BOND
   1    1    2 ar
   2    1    6 ar
   3    1   40 1
   4    2    3 ar
   5    2   27 1
   6    3    4 ar
   7    3   12 1
   8    4    5 ar
   9    4   41 1
  10    5    6 ar
  11    5    7 1
  12    6   42 1
  13    7    8 2
  14    7   11 1
  15    8    9 1
  16    9   10 1
  17    9   13 am
  18   10   11 1
  19   10   43 1
  20   10   44 1
  21   11   21 1
  22   11   45 1
  23   12   28 1
  24   13   16 1
  25   13   20 2
  26   14   15 ar
  27   14   19 ar
  28   14   46 1
  29   15   16 ar
  30   15   47 1
  31   16   17 ar
  32   17   18 ar
  33   17   48 1
  34   18   19 ar
  35   18   38 1
  36   19   49 1
  37   21   22 ar
  38   21   26 ar
  39   22   23 ar
  40   22   50 1
  41   23   24 ar
  42   23   51 1
  43   24   25 ar
  44   24   30 1
  45   25   26 ar
  46   25   52 1
  47   26   53 1
  48   27   29 1
  49   28   54 1
  50   28   55 1
  51   28   56 1
  52   29   57 1
  53   29   58 1
  54   29   59 1
  55   30   31 3
  56   31   32 1
  57   32   33 ar
  58   32   37 ar
  59   33   34 ar
  60   33   60 1
  61   34   35 ar
  62   34   61 1
  63   35   36 ar
  64   35   62 1
  65   36   37 ar
  66   36   63 1
  67   37   64 1
  68   38   39 3

#	End of record

