#	Name: ASD00170642
#	Creating user name:	WinNT
#	Creation time:	15. 06. 2019 18:32

#	Modifying user name:	WinNT
#	Modification time:	15. 06. 2019 18:32

#	Program:	/corina/corina34_cracker 3.40 0067  02.08.2006

@<TRIPOS>MOLECULE
ASD00170642
  56   61    0    0    0
SMALL
NO_CHARGES


@<TRIPOS>ATOM
   1 C1            -0.0169     1.2112    -0.0164 C.2     
   2 O2             0.5112     0.7376     0.9735 O.2     
   3 C3             3.8138    -0.2348    -3.0988 C.3     
   4 C4             2.4846     0.3416    -2.6757 C.ar    
   5 C5             1.8906     0.4789    -1.4426 C.ar    
   6 C6             0.6252     1.0623    -1.3394 C.ar    
   7 C7            -0.0314     1.5040    -2.4909 C.ar    
   8 C8             0.5658     1.3650    -3.7221 C.ar    
   9 C9             1.8323     0.7812    -3.8266 C.ar    
  10 C10            2.6869     0.5155    -5.0094 C.ar    
  11 C11            2.4814     0.7691    -6.3676 C.ar    
  12 C12            3.4483     0.4207    -7.2870 C.ar    
  13 C13            4.6229    -0.1799    -6.8700 C.ar    
  14 C14            4.8333    -0.4342    -5.5263 C.ar    
  15 C15            3.8723    -0.0894    -4.5996 C.ar    
  16 C16           -5.0571     1.7037     0.1669 C.3     
  17 C17           -3.5996     2.1212     0.1840 C.2     
  18 C18           -2.5807     1.2634     0.0523 C.2     
  19 C19           -2.7870    -0.2325    -0.1289 C.3     
  20 C20           -4.2251    -0.5692     0.2781 C.3     
  21 N21           -5.1505     0.3498    -0.3991 N.3     
  22 C22           -1.2896     1.9224     0.1029 C.2     
  23 C23           -1.3833     3.2810     0.2750 C.2     
  24 S24           -3.0134     3.7635     0.3751 S.3     
  25 C25           -6.5297    -0.1522    -0.3384 C.3     
  26 C26           -7.4059     0.6757    -1.2427 C.ar    
  27 C27           -7.5762     0.3094    -2.5648 C.ar    
  28 C28           -8.3799     1.0689    -3.3943 C.ar    
  29 C29           -9.0137     2.1943    -2.9018 C.ar    
  30 C30           -8.8441     2.5600    -1.5795 C.ar    
  31 C31           -8.0439     1.7981    -0.7488 C.ar    
  32 N32           -0.3046     4.1382     0.3557 N.pl3   
  33 H33            4.6287     0.3216    -2.6358 H       
  34 H34            3.8719    -1.2873    -2.8212 H       
  35 H35            2.4017     0.1357    -0.5552 H       
  36 H36           -1.0097     1.9550    -2.4141 H       
  37 H37            0.0554     1.7071    -4.6102 H       
  38 H38            1.5658     1.2375    -6.6974 H       
  39 H39            3.2879     0.6171    -8.3369 H       
  40 H40            5.3765    -0.4509    -7.5945 H       
  41 H41            5.7510    -0.9031    -5.2031 H       
  42 H42           -5.4496     1.7030     1.1839 H       
  43 H43           -5.6295     2.3979    -0.4484 H       
  44 H44           -2.6276    -0.5019    -1.1730 H       
  45 H45           -2.0880    -0.7796     0.5036 H       
  46 H46           -4.4544    -1.5948    -0.0109 H       
  47 H47           -4.3321    -0.4624     1.3576 H       
  48 H48           -6.5523    -1.1924    -0.6632 H       
  49 H49           -6.8967    -0.0833     0.6857 H       
  50 H50           -7.0810    -0.5698    -2.9496 H       
  51 H51           -8.5124     0.7831    -4.4274 H       
  52 H52           -9.6410     2.7880    -3.5501 H       
  53 H53           -9.3390     3.4395    -1.1947 H       
  54 H54           -7.9144     2.0818     0.2852 H       
  55 H55            0.5976     3.7823     0.3713 H       
  56 H56           -0.4487     5.0966     0.3968 H       
@<TRIPOS>BOND
   1    1    2 2
   2    1    6 1
   3    1   22 1
   4    3    4 1
   5    3   15 1
   6    3   33 1
   7    3   34 1
   8    4    5 ar
   9    4    9 ar
  10    5    6 ar
  11    5   35 1
  12    6    7 ar
  13    7    8 ar
  14    7   36 1
  15    8    9 ar
  16    8   37 1
  17    9   10 1
  18   10   11 ar
  19   10   15 ar
  20   11   12 ar
  21   11   38 1
  22   12   13 ar
  23   12   39 1
  24   13   14 ar
  25   13   40 1
  26   14   15 ar
  27   14   41 1
  28   16   17 1
  29   16   21 1
  30   16   42 1
  31   16   43 1
  32   17   18 2
  33   17   24 1
  34   18   19 1
  35   18   22 1
  36   19   20 1
  37   19   44 1
  38   19   45 1
  39   20   21 1
  40   20   46 1
  41   20   47 1
  42   21   25 1
  43   22   23 2
  44   23   24 1
  45   23   32 1
  46   25   26 1
  47   25   48 1
  48   25   49 1
  49   26   27 ar
  50   26   31 ar
  51   27   28 ar
  52   27   50 1
  53   28   29 ar
  54   28   51 1
  55   29   30 ar
  56   29   52 1
  57   30   31 ar
  58   30   53 1
  59   31   54 1
  60   32   55 1
  61   32   56 1

#	End of record

