#	Name: ASD01231375
#	Creating user name:	WinNT
#	Creation time:	15. 06. 2019 19:15

#	Modifying user name:	WinNT
#	Modification time:	15. 06. 2019 19:15

#	Program:	/corina/corina34_cracker 3.40 0067  02.08.2006

@<TRIPOS>MOLECULE
ASD01231375
  41   43    0    0    0
SMALL
NO_CHARGES


@<TRIPOS>ATOM
   1 C1            -0.0173     1.4248     0.0099 C.3     
   2 O2             0.0021    -0.0041     0.0020 O.3     
   3 C3             1.3965     1.9464    -0.0008 C.ar    
   4 C4             2.0336     2.1921    -1.2030 C.ar    
   5 C5             3.3303     2.6705    -1.2128 C.ar    
   6 C6             3.9901     2.9037    -0.0204 C.ar    
   7 C7             3.3529     2.6589     1.1814 C.ar    
   8 C8             2.0543     2.1845     1.1912 C.ar    
   9 C9             4.0723     2.9127     2.4810 C.3     
  10 F10            3.8392     4.2290     2.8937 F       
  11 F11            3.5998     2.0277     3.4561 F       
  12 F12            5.4456     2.7170     2.2998 F       
  13 C13            4.0251     2.9373    -2.5232 C.3     
  14 C14            3.2537     8.4576    -4.0177 C.3     
  15 C15            4.1905     9.0953    -2.9699 C.3     
  16 C16            5.1637     7.9409    -2.6496 C.3     
  17 C17            4.3873     6.6751    -2.9434 C.ar    
  18 C18            4.6227     5.3670    -2.5541 C.ar    
  19 C19            3.7650     4.3593    -2.9492 C.ar    
  20 C20            2.6673     4.6563    -3.7355 C.ar    
  21 C21            2.4306     5.9601    -4.1243 C.ar    
  22 C22            3.2899     6.9721    -3.7295 C.ar    
  23 N23            4.9100    10.2414    -3.5414 N.3     
  24 H24           -0.5445     1.7859    -0.8732 H       
  25 H25           -0.5275     1.7763     0.9067 H       
  26 H26           -0.8759    -0.4094     0.0082 H       
  27 H27            1.5182     2.0099    -2.1344 H       
  28 H28            5.0036     3.2768    -0.0281 H       
  29 H29            1.5551     1.9968     2.1303 H       
  30 H30            5.0976     2.7843    -2.4035 H       
  31 H31            3.6432     2.2549    -3.2825 H       
  32 H32            2.2399     8.8409    -3.9017 H       
  33 H33            3.6212     8.6566    -5.0244 H       
  34 H34            3.6335     9.3904    -2.0807 H       
  35 H35            6.0450     8.0009    -3.2883 H       
  36 H36            5.4541     7.9713    -1.5994 H       
  37 H37            5.4804     5.1341    -1.9405 H       
  38 H38            1.9957     3.8694    -4.0456 H       
  39 H39            1.5729     6.1914    -4.7385 H       
  40 H40            4.2674    10.9616    -3.8355 H       
  41 H41            5.5870    10.6058    -2.8879 H       
@<TRIPOS>BOND
   1    1    2 1
   2    1    3 1
   3    1   24 1
   4    1   25 1
   5    2   26 1
   6    3    4 ar
   7    3    8 ar
   8    4    5 ar
   9    4   27 1
  10    5    6 ar
  11    5   13 1
  12    6    7 ar
  13    6   28 1
  14    7    8 ar
  15    7    9 1
  16    8   29 1
  17    9   10 1
  18    9   11 1
  19    9   12 1
  20   13   19 1
  21   13   30 1
  22   13   31 1
  23   14   15 1
  24   14   22 1
  25   14   32 1
  26   14   33 1
  27   15   16 1
  28   15   23 1
  29   15   34 1
  30   16   17 1
  31   16   35 1
  32   16   36 1
  33   17   18 ar
  34   17   22 ar
  35   18   19 ar
  36   18   37 1
  37   19   20 ar
  38   20   21 ar
  39   20   38 1
  40   21   22 ar
  41   21   39 1
  42   23   40 1
  43   23   41 1

#	End of record

