#	Name: ASD01148244
#	Creating user name:	WinNT
#	Creation time:	15. 06. 2019 19:02

#	Modifying user name:	WinNT
#	Modification time:	15. 06. 2019 19:02

#	Program:	/corina/corina34_cracker 3.40 0067  02.08.2006

@<TRIPOS>MOLECULE
ASD01148244
  43   45    0    0    0
SMALL
NO_CHARGES


@<TRIPOS>ATOM
   1 C1            -0.0167     1.3791     0.0096 C.ar    
   2 C2             0.0021    -0.0041     0.0020 C.ar    
   3 C3            -1.1867    -0.7114     0.0101 C.ar    
   4 C4            -2.3937    -0.0352     0.0257 C.ar    
   5 C5            -2.4118     1.3469     0.0333 C.ar    
   6 C6            -1.2242     2.0542     0.0306 C.ar    
   7 C7            -3.7267     2.0828     0.0503 C.3     
   8 O8            -4.7311     1.3288     0.7589 O.3     
   9 C9            -3.6320     3.3664     0.9093 C.3     
  10 C10           -4.1221     2.8930     2.2646 C.2     
  11 N11           -4.7168     1.7582     2.1060 N.2     
  12 C12           -3.9488     3.6071     3.5447 C.ar    
  13 C13           -4.4520     3.0558     4.7259 C.ar    
  14 C14           -3.2766     4.8316     3.5761 C.ar    
  15 C15           -3.1146     5.4973     4.7699 C.ar    
  16 C16           -3.6227     4.9488     5.9503 C.ar    
  17 C17           -4.2908     3.7219     5.9196 C.ar    
  18 C18           -3.4489     5.6632     7.2314 C.2     
  19 O19           -2.8640     6.7280     7.2588 O.2     
  20 N20           -3.9391     5.1341     8.3700 N.am    
  21 C21           -4.1878     2.4076    -1.3720 C.3     
  22 F22           -4.3307     1.2205    -2.0984 F       
  23 F23           -5.4163     3.0751    -1.3230 F       
  24 F24           -3.2379     3.2241    -1.9951 F       
  25 Cl25          -1.1641    -2.4472    -0.0001 Cl      
  26 Cl26           1.4747     2.2676     0.0002 Cl      
  27 C27           -3.7805     5.7860     9.5389 C.2     
  28 O28           -4.2700     5.2575    10.6759 O.3     
  29 C29           -4.0623     6.0145    11.8975 C.3     
  30 O30           -3.1958     6.8503     9.5663 O.2     
  31 H31            0.9444    -0.5315    -0.0105 H       
  32 H32           -3.3218    -0.5873     0.0316 H       
  33 H33           -1.2390     3.1341     0.0365 H       
  34 H34           -2.6012     3.7155     0.9710 H       
  35 H35           -4.2827     4.1460     0.5132 H       
  36 H36           -4.9677     2.1071     4.7023 H       
  37 H37           -2.8838     5.2556     2.6638 H       
  38 H38           -2.5944     6.4435     4.7943 H       
  39 H39           -4.6839     3.2980     6.8319 H       
  40 H40           -4.4060     4.2841     8.3481 H       
  41 H41           -4.5047     5.4782    12.7369 H       
  42 H42           -2.9934     6.1405    12.0695 H       
  43 H43           -4.5330     6.9931    11.8029 H       
@<TRIPOS>BOND
   1    1    2 ar
   2    1   26 1
   3    1    6 ar
   4    2    3 ar
   5    2   31 1
   6    3    4 ar
   7    3   25 1
   8    4    5 ar
   9    4   32 1
  10    5    6 ar
  11    5    7 1
  12    6   33 1
  13    7    8 1
  14    7    9 1
  15    7   21 1
  16    8   11 1
  17    9   10 1
  18    9   34 1
  19    9   35 1
  20   10   11 2
  21   10   12 1
  22   12   13 ar
  23   12   14 ar
  24   13   17 ar
  25   13   36 1
  26   14   15 ar
  27   14   37 1
  28   15   16 ar
  29   15   38 1
  30   16   17 ar
  31   16   18 1
  32   17   39 1
  33   18   19 2
  34   18   20 am
  35   20   27 am
  36   20   40 1
  37   21   22 1
  38   21   23 1
  39   21   24 1
  40   27   28 1
  41   27   30 2
  42   28   29 1
  43   29   41 1
  44   29   42 1
  45   29   43 1

#	End of record

