#	Name: ASD03730959
#	Creating user name:	WinNT
#	Creation time:	15. 06. 2019 20:45

#	Modifying user name:	WinNT
#	Modification time:	15. 06. 2019 20:45

#	Program:	/corina/corina34_cracker 3.40 0067  02.08.2006

@<TRIPOS>MOLECULE
ASD03730959
  58   64    0    0    0
SMALL
NO_CHARGES


@<TRIPOS>ATOM
   1 C1            -0.0180     1.4737     0.0101 C.2     
   2 C2             0.0021    -0.0041     0.0020 C.ar    
   3 C3             1.2188    -0.6887    -0.0133 C.ar    
   4 C4             1.2303    -2.0680    -0.0208 C.ar    
   5 C5             0.0396    -2.7730    -0.0138 C.ar    
   6 C6            -1.1694    -2.1009     0.0009 C.ar    
   7 C7            -1.1952    -0.7214     0.0154 C.ar    
   8 O8             1.0264     2.0958     0.0035 O.2     
   9 N9            -1.1942     2.1317     0.0193 N.am    
  10 C10            2.5426    -2.8087    -0.0373 C.3     
  11 O11           -0.8964    -3.3246     6.2553 O.3     
  12 C12           -0.9374    -3.5796     7.6718 C.3     
  13 O13           -0.0323    -4.6855     7.8468 O.3     
  14 C14            0.8656    -4.5890     6.8224 C.ar    
  15 C15            0.3332    -3.7529     5.8437 C.ar    
  16 C16            2.1149    -5.1555     6.6434 C.ar    
  17 C17            2.8470    -4.8977     5.4883 C.ar    
  18 C18            2.3011    -4.0675     4.5141 C.ar    
  19 C19            1.0584    -3.4963     4.6923 C.ar    
  20 O20            4.0871    -5.3351     5.1264 O.3     
  21 C21            3.3028    -4.0067     3.3920 C.3     
  22 C22            4.2526    -5.1710     3.7047 C.3     
  23 N23            2.9810    -3.0562     1.3384 N.am    
  24 C24            2.6568    -4.1575     2.0449 C.2     
  25 C25            4.0251    -2.6932     3.3421 C.ar    
  26 C26            4.7969    -1.9968     4.2452 C.ar    
  27 C27            5.3426    -0.7751     3.8935 C.ar    
  28 C28            5.1106    -0.2548     2.6332 C.ar    
  29 C29            4.3374    -0.9480     1.7254 C.ar    
  30 C30            3.7844    -2.1788     2.0707 C.ar    
  31 O31            1.9770    -5.0879     1.6665 O.2     
  32 S32           -2.6276     4.4806     0.0389 S.3     
  33 C33           -1.2130     3.5205     0.0269 C.2     
  34 N34           -0.1605     4.2775     0.0265 N.2     
  35 C35           -0.3626     5.5817     0.0349 C.2     
  36 C36           -1.6469     5.9442     0.0428 C.2     
  37 C37           -2.1675     7.3584     0.0533 C.3     
  38 H38            2.1487    -0.1396    -0.0195 H       
  39 H39            0.0543    -3.8529    -0.0201 H       
  40 H40           -2.0951    -2.6571     0.0057 H       
  41 H41           -2.1397    -0.1979     0.0321 H       
  42 H42           -2.0276     1.6353     0.0206 H       
  43 H43            2.4166    -3.7596    -0.5551 H       
  44 H44            3.2916    -2.2095    -0.5551 H       
  45 H45           -0.5902    -2.7088     8.2279 H       
  46 H46           -1.9450    -3.8566     7.9820 H       
  47 H47            2.5248    -5.8021     7.4052 H       
  48 H48            0.6497    -2.8475     3.9317 H       
  49 H49            5.2820    -4.9065     3.4628 H       
  50 H50            3.9482    -6.0725     3.1730 H       
  51 H51            4.9767    -2.4049     5.2288 H       
  52 H52            5.9487    -0.2291     4.6013 H       
  53 H53            5.5365     0.6989     2.3587 H       
  54 H54            4.1602    -0.5350     0.7434 H       
  55 H55            0.4459     6.2977     0.0359 H       
  56 H56           -3.2573     7.3443     0.0586 H       
  57 H57           -1.8064     7.8718     0.9444 H       
  58 H58           -1.8151     7.8818    -0.8355 H       
@<TRIPOS>BOND
   1    1    2 1
   2    1    8 2
   3    1    9 am
   4    2    3 ar
   5    2    7 ar
   6    3    4 ar
   7    3   38 1
   8    4    5 ar
   9    4   10 1
  10    5    6 ar
  11    5   39 1
  12    6    7 ar
  13    6   40 1
  14    7   41 1
  15    9   33 1
  16    9   42 1
  17   10   23 1
  18   10   43 1
  19   10   44 1
  20   11   12 1
  21   11   15 1
  22   12   13 1
  23   12   45 1
  24   12   46 1
  25   13   14 1
  26   14   15 ar
  27   14   16 ar
  28   15   19 ar
  29   16   17 ar
  30   16   47 1
  31   17   18 ar
  32   17   20 1
  33   18   19 ar
  34   18   21 1
  35   19   48 1
  36   20   22 1
  37   21   22 1
  38   21   24 1
  39   21   25 1
  40   22   49 1
  41   22   50 1
  42   23   24 am
  43   23   30 1
  44   24   31 2
  45   25   26 ar
  46   25   30 ar
  47   26   27 ar
  48   26   51 1
  49   27   28 ar
  50   27   52 1
  51   28   29 ar
  52   28   53 1
  53   29   30 ar
  54   29   54 1
  55   32   33 1
  56   32   36 1
  57   33   34 2
  58   34   35 1
  59   35   36 2
  60   35   55 1
  61   36   37 1
  62   37   56 1
  63   37   57 1
  64   37   58 1

#	End of record

