#	Name: ASD03330669
#	Creating user name:	WinNT
#	Creation time:	15. 06. 2019 20:37

#	Modifying user name:	WinNT
#	Modification time:	15. 06. 2019 20:37

#	Program:	/corina/corina34_cracker 3.40 0067  02.08.2006

@<TRIPOS>MOLECULE
ASD03330669
  67   69    0    0    0
SMALL
NO_CHARGES


@<TRIPOS>ATOM
   1 C1             0.1610     1.2188     0.7160 C.2     
   2 N2             0.2494    -0.1104     0.9859 N.pl3   
   3 C3             1.4342     1.6975     0.6369 C.2     
   4 N4             2.2777     0.6630     0.8398 N.2     
   5 C5             1.5760    -0.4290     1.0448 C.2     
   6 C6             2.1278    -1.7713     1.2954 C.2     
   7 C7             1.8215     3.0952     0.3755 C.2     
   8 O8             0.9652     3.9423     0.2071 O.2     
   9 C9             3.5098     4.8242     0.0632 C.3     
  10 N10            3.1248     3.4348     0.3230 N.am    
  11 C11            3.5355     5.0725    -1.4463 C.3     
  12 C12            2.1197     4.9352    -2.0099 C.3     
  13 C13            4.0597     6.4832    -1.7222 C.3     
  14 C14            4.4527     4.0475    -2.1163 C.3     
  15 C15            4.8788     5.0819     0.6380 C.2     
  16 N16            5.3628     6.3388     0.6885 N.am    
  17 O17            5.5451     4.1584     1.0552 O.2     
  18 C18            6.7244     6.5805     1.1722 C.3     
  19 C19           -0.8864    -1.0141     1.1877 C.3     
  20 C20           -1.9136    -0.7863     0.0742 C.3     
  21 C21           -2.8740     0.3275     0.4787 C.3     
  22 N22           -2.1935     1.3432     1.2845 N.3     
  23 C23           -1.1163     1.9948     0.5245 C.3     
  24 C24           -3.1484     2.3338     1.7989 C.3     
  25 C25            3.4434    -1.9533     1.3278 C.2     
  26 C26            4.0079    -3.3269     1.5842 C.3     
  27 C27            4.9502    -3.6990     0.4686 C.ar    
  28 C28            6.2925    -3.3824     0.5631 C.ar    
  29 C29            7.1568    -3.7238    -0.4603 C.ar    
  30 C30            6.6789    -4.3821    -1.5780 C.ar    
  31 C31            5.3368    -4.6995    -1.6720 C.ar    
  32 C32            4.4732    -4.3620    -0.6467 C.ar    
  33 H33            1.4629    -2.6077     1.4529 H       
  34 H34            2.7879     5.4946     0.5295 H       
  35 H35            3.8078     2.7592     0.4573 H       
  36 H36            1.4663     5.6655    -1.5326 H       
  37 H37            2.1380     5.1122    -3.0853 H       
  38 H38            1.7463     3.9303    -1.8133 H       
  39 H39            5.0206     6.6173    -1.2255 H       
  40 H40            4.1835     6.6212    -2.7964 H       
  41 H41            3.3484     7.2161    -1.3414 H       
  42 H42            4.0793     3.0425    -1.9197 H       
  43 H43            4.4710     4.2244    -3.1917 H       
  44 H44            5.4614     4.1453    -1.7148 H       
  45 H45            4.8097     7.0833     0.4045 H       
  46 H46            7.4348     6.0501     0.5382 H       
  47 H47            6.9367     7.6492     1.1407 H       
  48 H48            6.8146     6.2222     2.1977 H       
  49 H49           -0.5398    -2.0471     1.1578 H       
  50 H50           -1.3463    -0.8108     2.1548 H       
  51 H51           -1.3971    -0.5041    -0.8432 H       
  52 H52           -2.4748    -1.7053    -0.0947 H       
  53 H53           -3.2781     0.7950    -0.4192 H       
  54 H54           -3.6928    -0.0991     1.0582 H       
  55 H55           -0.9809     3.0144     0.8854 H       
  56 H56           -1.3765     2.0131    -0.5338 H       
  57 H57           -3.8908     1.8339     2.4211 H       
  58 H58           -2.6166     3.0764     2.3937 H       
  59 H59           -3.6465     2.8263     0.9637 H       
  60 H60            4.1083    -1.1170     1.1703 H       
  61 H61            4.5479    -3.3268     2.5311 H       
  62 H62            3.1947    -4.0512     1.6298 H       
  63 H63            6.6658    -2.8681     1.4363 H       
  64 H64            8.2054    -3.4758    -0.3868 H       
  65 H65            7.3541    -4.6481    -2.3778 H       
  66 H66            4.9634    -5.2135    -2.5454 H       
  67 H67            3.4247    -4.6099    -0.7202 H       
@<TRIPOS>BOND
   1    1    2 1
   2    1    3 2
   3    1   23 1
   4    2   19 1
   5    2    5 1
   6    3    4 1
   7    3    7 1
   8    4    5 2
   9    5    6 1
  10    6   25 2
  11    6   33 1
  12    7    8 2
  13    7   10 am
  14    9   10 1
  15    9   11 1
  16    9   15 1
  17    9   34 1
  18   10   35 1
  19   11   12 1
  20   11   13 1
  21   11   14 1
  22   12   36 1
  23   12   37 1
  24   12   38 1
  25   13   39 1
  26   13   40 1
  27   13   41 1
  28   14   42 1
  29   14   43 1
  30   14   44 1
  31   15   16 am
  32   15   17 2
  33   16   18 1
  34   16   45 1
  35   18   46 1
  36   18   47 1
  37   18   48 1
  38   19   20 1
  39   19   49 1
  40   19   50 1
  41   20   21 1
  42   20   51 1
  43   20   52 1
  44   21   22 1
  45   21   53 1
  46   21   54 1
  47   22   23 1
  48   22   24 1
  49   23   55 1
  50   23   56 1
  51   24   57 1
  52   24   58 1
  53   24   59 1
  54   25   26 1
  55   25   60 1
  56   26   27 1
  57   26   61 1
  58   26   62 1
  59   27   28 ar
  60   27   32 ar
  61   28   29 ar
  62   28   63 1
  63   29   30 ar
  64   29   64 1
  65   30   31 ar
  66   30   65 1
  67   31   32 ar
  68   31   66 1
  69   32   67 1

#	End of record

