#	Name: ASD01910607
#	Creating user name:	WinNT
#	Creation time:	15. 06. 2019 19:56

#	Modifying user name:	WinNT
#	Modification time:	15. 06. 2019 19:56

#	Program:	/corina/corina34_cracker 3.40 0067  02.08.2006

@<TRIPOS>MOLECULE
ASD01910607
  43   46    0    0    0
SMALL
NO_CHARGES


@<TRIPOS>ATOM
   1 C1            -0.6057     2.2784     0.1971 C.ar    
   2 C2            -0.7271     0.8986     0.2615 C.ar    
   3 C3             0.4035     0.0989     0.3010 C.ar    
   4 C4             1.6596     0.6735     0.2763 C.ar    
   5 C5             1.7866     2.0652     0.2113 C.ar    
   6 C6             0.6419     2.8639     0.1719 C.ar    
   7 C7             3.1255     2.6869     0.1850 C.2     
   8 N8             3.3949     3.9797     0.1249 N.2     
   9 C9             4.7340     4.0682     0.1241 C.2     
  10 N10            5.2088     2.8590     0.1821 N.2     
  11 O11            4.3063     2.0498     0.2233 O.3     
  12 C12            5.5416     5.3393     0.0664 C.3     
  13 C13            6.4212     5.4427     1.3145 C.3     
  14 C14            7.2173     6.7490     1.2727 C.3     
  15 C15            8.1260     6.7493     0.0394 C.3     
  16 N16            7.3041     6.5052    -1.1537 N.am    
  17 C17            6.4313     5.3236    -1.1806 C.3     
  18 C18            7.3498     7.3492    -2.2035 C.2     
  19 C19            6.6191     7.0235    -3.4454 C.ar    
  20 O20            7.9924     8.3784    -2.1284 O.2     
  21 C21            5.9261     8.0149    -4.1406 C.ar    
  22 N22            5.2743     7.7260    -5.2479 N.ar    
  23 C23            5.2488     6.5009    -5.7424 C.ar    
  24 C24            5.9137     5.4604    -5.1095 C.ar    
  25 C25            6.6158     5.7149    -3.9472 C.ar    
  26 F26            4.5646     6.2576    -6.8817 F       
  27 F27            2.7621    -0.1063     0.3152 F       
  28 F28           -1.9532     0.3316     0.2864 F       
  29 H29           -1.4911     2.8958     0.1620 H       
  30 H30            0.3028    -0.9752     0.3515 H       
  31 H31            0.7340     3.9388     0.1216 H       
  32 H32            4.8690     6.1960     0.0233 H       
  33 H33            5.7919     5.4292     2.2044 H       
  34 H34            7.1100     4.5984     1.3443 H       
  35 H35            6.5294     7.5927     1.2180 H       
  36 H36            7.8259     6.8331     2.1731 H       
  37 H37            8.6211     7.7164    -0.0495 H       
  38 H38            8.8732     5.9615     0.1358 H       
  39 H39            7.0402     4.4195    -1.1837 H       
  40 H40            5.8081     5.3499    -2.0745 H       
  41 H41            5.9239     9.0283    -3.7672 H       
  42 H42            5.8858     4.4631    -5.5231 H       
  43 H43            7.1426     4.9239    -3.4341 H       
@<TRIPOS>BOND
   1    1    2 ar
   2    1    6 ar
   3    1   29 1
   4    2    3 ar
   5    2   28 1
   6    3    4 ar
   7    3   30 1
   8    4    5 ar
   9    4   27 1
  10    5    6 ar
  11    5    7 1
  12    6   31 1
  13    7    8 2
  14    7   11 1
  15    8    9 1
  16    9   10 2
  17    9   12 1
  18   10   11 1
  19   12   13 1
  20   12   17 1
  21   12   32 1
  22   13   14 1
  23   13   33 1
  24   13   34 1
  25   14   15 1
  26   14   35 1
  27   14   36 1
  28   15   16 1
  29   15   37 1
  30   15   38 1
  31   16   17 1
  32   16   18 am
  33   17   39 1
  34   17   40 1
  35   18   19 1
  36   18   20 2
  37   19   21 ar
  38   19   25 ar
  39   21   22 ar
  40   21   41 1
  41   22   23 ar
  42   23   24 ar
  43   23   26 1
  44   24   25 ar
  45   24   42 1
  46   25   43 1

#	End of record

