#	Name: ASD03091110
#	Creating user name:	WinNT
#	Creation time:	15. 06. 2019 20:30

#	Modifying user name:	WinNT
#	Modification time:	15. 06. 2019 20:30

#	Program:	/corina/corina34_cracker 3.40 0067  02.08.2006

@<TRIPOS>MOLECULE
ASD03091110
  39   41    0    0    0
SMALL
NO_CHARGES


@<TRIPOS>ATOM
   1 C1             0.3973     1.1037     1.1352 C.2     
   2 C2             0.2160    -0.3511     0.9779 C.ar    
   3 C3             1.3329    -1.1941     0.8759 C.ar    
   4 C4             1.1530    -2.5631     0.7279 C.ar    
   5 C5            -0.1197    -3.0937     0.6807 C.ar    
   6 C6            -1.2315    -2.2636     0.7812 C.ar    
   7 C7            -1.0690    -0.8979     0.9353 C.ar    
   8 O8             1.5134     1.5654     1.2768 O.2     
   9 N9            -0.6732     1.9222     1.1165 N.am    
  10 C10           -2.5483    -4.0353    -0.1304 C.3     
  11 N11           -2.5189    -2.8122     0.7321 N.3     
  12 C12           -3.4795    -1.8599     0.1247 C.3     
  13 C13           -4.0892    -2.6201    -1.0936 C.3     
  14 N14           -2.9691    -2.6792    -2.0850 N.3     
  15 C15           -1.9381    -3.5602    -1.4854 C.3     
  16 C16           -4.0670    -4.0854    -0.5282 C.3     
  17 C17           -2.4280    -1.3392    -2.3484 C.3     
  18 C18           -0.4930     3.3676     1.2728 C.3     
  19 N19            2.6170    -0.6599     0.9225 N.pl3   
  20 H20            2.0114    -3.2139     0.6493 H       
  21 H21           -0.2535    -4.1591     0.5648 H       
  22 H22           -1.9335    -0.2559     1.0177 H       
  23 H23           -1.5631     1.5542     0.9996 H       
  24 H24           -2.1171    -4.9382     0.3019 H       
  25 H25           -4.2609    -1.6025     0.8398 H       
  26 H26           -2.9612    -0.9615    -0.2106 H       
  27 H27           -5.0421    -2.2454    -1.4675 H       
  28 H28           -1.0181    -3.0022    -1.3112 H       
  29 H29           -1.7464    -4.4147    -2.1345 H       
  30 H30           -4.2694    -4.8299    -1.2982 H       
  31 H31           -4.7184    -4.2055     0.3374 H       
  32 H32           -1.8920    -0.9843    -1.4681 H       
  33 H33           -1.7447    -1.3835    -3.1964 H       
  34 H34           -3.2457    -0.6554    -2.5760 H       
  35 H35           -1.4639     3.8613     1.2319 H       
  36 H36           -0.0211     3.5731     2.2337 H       
  37 H37            0.1401     3.7438     0.4693 H       
  38 H38            2.7431     0.3018     0.9069 H       
  39 H39            3.3860    -1.2492     0.9707 H       
@<TRIPOS>BOND
   1    1    2 1
   2    1    8 2
   3    1    9 am
   4    2    3 ar
   5    2    7 ar
   6    3    4 ar
   7    3   19 1
   8    4    5 ar
   9    4   20 1
  10    5    6 ar
  11    5   21 1
  12    6    7 ar
  13    6   11 1
  14    7   22 1
  15    9   18 1
  16    9   23 1
  17   10   11 1
  18   10   15 1
  19   10   16 1
  20   10   24 1
  21   11   12 1
  22   12   13 1
  23   12   25 1
  24   12   26 1
  25   13   14 1
  26   13   16 1
  27   13   27 1
  28   14   15 1
  29   14   17 1
  30   15   28 1
  31   15   29 1
  32   16   30 1
  33   16   31 1
  34   17   32 1
  35   17   33 1
  36   17   34 1
  37   18   35 1
  38   18   36 1
  39   18   37 1
  40   19   38 1
  41   19   39 1

#	End of record

