#	Name: ASD01180119
#	Creating user name:	WinNT
#	Creation time:	15. 06. 2019 19:06

#	Modifying user name:	WinNT
#	Modification time:	15. 06. 2019 19:06

#	Program:	/corina/corina34_cracker 3.40 0067  02.08.2006

@<TRIPOS>MOLECULE
ASD01180119
  21   22    0    0    0
SMALL
NO_CHARGES


@<TRIPOS>ATOM
   1 N1            -0.0158     1.3111     0.0093 N.ar    
   2 C2             0.0021    -0.0041     0.0020 C.ar    
   3 C3             1.2047    -0.7215    -0.0128 C.ar    
   4 C4             2.3934    -0.0548    -0.0206 C.ar    
   5 C5             2.3681     1.3545    -0.0132 C.ar    
   6 C6             3.5540     2.1047    -0.0209 C.ar    
   7 C7             3.4904     3.4654    -0.0140 C.ar    
   8 C8             2.2628     4.1228     0.0012 C.ar    
   9 C9             1.0932     3.4258     0.0090 C.ar    
  10 C10            1.1184     2.0210     0.0022 C.ar    
  11 O11           -1.1722    -0.6815     0.0096 O.3     
  12 C12            2.2284     5.6294     0.0095 C.3     
  13 F13            3.5363     6.1258    -0.0003 F       
  14 F14            1.5476     6.0866    -1.1239 F       
  15 F15            1.5693     6.0744     1.1605 F       
  16 H16            1.1902    -1.8014    -0.0178 H       
  17 H17            3.3301    -0.5922    -0.0317 H       
  18 H18            4.5119     1.6060    -0.0319 H       
  19 H19            4.4037     4.0418    -0.0199 H       
  20 H20            0.1495     3.9508     0.0211 H       
  21 H21           -1.5213    -0.8733    -0.8716 H       
@<TRIPOS>BOND
   1    1    2 ar
   2    1   10 ar
   3    2    3 ar
   4    2   11 1
   5    3    4 ar
   6    3   16 1
   7    4    5 ar
   8    4   17 1
   9    5    6 ar
  10    5   10 ar
  11    6    7 ar
  12    6   18 1
  13    7    8 ar
  14    7   19 1
  15    8    9 ar
  16    8   12 1
  17    9   10 ar
  18    9   20 1
  19   11   21 1
  20   12   13 1
  21   12   14 1
  22   12   15 1

#	End of record

