#	Name: ASD02408014
#	Creating user name:	WinNT
#	Creation time:	15. 06. 2019 20:20

#	Modifying user name:	WinNT
#	Modification time:	15. 06. 2019 20:20

#	Program:	/corina/corina34_cracker 3.40 0067  02.08.2006

@<TRIPOS>MOLECULE
ASD02408014
  54   56    0    0    0
SMALL
NO_CHARGES


@<TRIPOS>ATOM
   1 C1            -0.4185     2.2346     0.0172 C.ar    
   2 C2            -0.6723     0.8945    -0.2008 C.ar    
   3 C3             0.9994     2.7449     0.0075 C.3     
   4 C4             1.5285     2.7849     1.4180 C.2     
   5 N5             2.7876     3.2147     1.6293 N.am    
   6 N6             0.7496     2.4070     2.3950 N.2     
   7 C7             1.1657     2.4218     3.6678 C.2     
   8 C8             2.4701     2.8539     3.9593 C.2     
   9 C9             3.2936     3.2640     2.8795 C.2     
  10 N10            0.3260     2.0194     4.6772 N.pl3   
  11 O11            4.4337     3.6479     3.0758 O.2     
  12 C12           -1.9732     0.4255    -0.1920 C.ar    
  13 C13           -3.0228     1.2962     0.0348 C.ar    
  14 C14           -2.7742     2.6377     0.2529 C.ar    
  15 C15           -1.4706     3.1115     0.2393 C.ar    
  16 C16            0.2931     2.7417     5.9563 C.3     
  17 C17           -0.5610     0.8621     4.4965 C.3     
  18 C18           -1.9971     1.2864     4.8195 C.3     
  19 C19           -2.0408     1.8988     6.2214 C.3     
  20 C20           -1.1544     3.1410     6.2599 C.3     
  21 C21           -3.4798     2.2922     6.5612 C.3     
  22 C22           -3.5449     2.7887     8.0069 C.3     
  23 O23           -4.8889     3.1562     8.3243 O.3     
  24 O24           -1.2235     4.4306     0.4535 O.3     
  25 C25           -2.3541     5.2729     0.6863 C.3     
  26 C26           -1.8818     6.7117     0.9049 C.3     
  27 C27            2.9525     2.8845     5.3073 C.1     
  28 N28            3.3353     2.9087     6.3766 N.1     
  29 H29            0.1459     0.2123    -0.3785 H       
  30 H30            1.6202     2.0816    -0.5947 H       
  31 H31            1.0215     3.7484    -0.4174 H       
  32 H32            3.3347     3.4905     0.8772 H       
  33 H33           -2.1696    -0.6226    -0.3630 H       
  34 H34           -4.0379     0.9276     0.0411 H       
  35 H35           -3.5946     3.3176     0.4297 H       
  36 H36            0.6683     2.0961     6.7503 H       
  37 H37            0.9120     3.6363     5.8867 H       
  38 H38           -0.5055     0.5169     3.4641 H       
  39 H39           -0.2569     0.0601     5.1690 H       
  40 H40           -2.3315     2.0238     4.0898 H       
  41 H41           -2.6509     0.4150     4.7827 H       
  42 H42           -1.6828     1.1692     6.9477 H       
  43 H43           -1.2027     3.5918     7.2512 H       
  44 H44           -1.5010     3.8585     5.5162 H       
  45 H45           -3.8078     3.0855     5.8895 H       
  46 H46           -4.1305     1.4255     6.4450 H       
  47 H47           -3.2168     1.9955     8.6786 H       
  48 H48           -2.8942     3.6554     8.1231 H       
  49 H49           -5.0049     3.4810     9.2277 H       
  50 H50           -3.0187     5.2359    -0.1768 H       
  51 H51           -2.8885     4.9275     1.5714 H       
  52 H52           -1.2172     6.7488     1.7681 H       
  53 H53           -1.3475     7.0571     0.0199 H       
  54 H54           -2.7442     7.3542     1.0825 H       
@<TRIPOS>BOND
   1    1    2 ar
   2    1    3 1
   3    1   15 ar
   4    2   12 ar
   5    2   29 1
   6    3    4 1
   7    3   30 1
   8    3   31 1
   9    4    5 1
  10    4    6 2
  11    5    9 am
  12    5   32 1
  13    6    7 1
  14    7    8 2
  15    7   10 1
  16    8    9 1
  17    8   27 1
  18    9   11 2
  19   10   16 1
  20   10   17 1
  21   12   13 ar
  22   12   33 1
  23   13   14 ar
  24   13   34 1
  25   14   15 ar
  26   14   35 1
  27   15   24 1
  28   16   20 1
  29   16   36 1
  30   16   37 1
  31   17   18 1
  32   17   38 1
  33   17   39 1
  34   18   19 1
  35   18   40 1
  36   18   41 1
  37   19   20 1
  38   19   21 1
  39   19   42 1
  40   20   43 1
  41   20   44 1
  42   21   22 1
  43   21   45 1
  44   21   46 1
  45   22   23 1
  46   22   47 1
  47   22   48 1
  48   23   49 1
  49   24   25 1
  50   25   26 1
  51   25   50 1
  52   25   51 1
  53   26   52 1
  54   26   53 1
  55   26   54 1
  56   27   28 3

#	End of record

