#	Name: ASD08830019
#	Creating user name:	WinNT
#	Creation time:	15. 06. 2019 21:19

#	Modifying user name:	WinNT
#	Modification time:	15. 06. 2019 21:19

#	Program:	/corina/corina34_cracker 3.40 0067  02.08.2006

@<TRIPOS>MOLECULE
ASD08830019
  56   58    0    0    0
SMALL
NO_CHARGES


@<TRIPOS>ATOM
   1 C1             0.0538     2.7256    -0.4850 C.ar    
   2 C2            -0.1094     1.4485    -1.0805 C.ar    
   3 C3             1.3425     3.1752    -0.1402 C.ar    
   4 C4             2.4223     2.3896    -0.3773 C.ar    
   5 C5             2.2749     1.1191    -0.9686 C.ar    
   6 C6             1.0171     0.6481    -1.3193 C.ar    
   7 C7             3.4617     0.2866    -1.2163 C.2     
   8 C8             4.8297     0.7932    -0.8380 C.3     
   9 C9             5.8808    -0.2581    -1.1996 C.3     
  10 N10            7.2143     0.2356    -0.8309 N.3     
  11 O11            3.3395    -0.8074    -1.7249 O.2     
  12 C12           -1.0771     3.5252    -0.2542 C.ar    
  13 C13           -1.4002     1.0065    -1.4221 C.ar    
  14 C14           -2.4732     1.8078    -1.1776 C.ar    
  15 C15           -2.3112     3.0666    -0.6032 C.ar    
  16 C16            8.2514    -0.7499    -1.1643 C.3     
  17 C17            9.6231    -0.2012    -0.7665 C.3     
  18 C18           10.6885    -1.2752    -0.9980 C.3     
  19 C19            9.9452     1.0307    -1.6155 C.3     
  20 C20           11.3035     1.5977    -1.1908 C.3     
  21 N21           12.3084     0.5290    -1.2725 N.am    
  22 C22           12.0552    -0.7343    -0.5664 C.3     
  23 C23           13.4408     0.7040    -1.9821 C.2     
  24 O24           13.4732     1.5187    -2.8841 O.2     
  25 N25           14.5373    -0.0240    -1.6919 N.am    
  26 C26           15.6375    -0.1073    -2.6556 C.3     
  27 C27           14.6289    -0.7321    -0.4126 C.3     
  28 H28            1.4715     4.1468     0.3134 H       
  29 H29            3.4075     2.7423    -0.1100 H       
  30 H30            0.9071    -0.3261    -1.7723 H       
  31 H31            5.0378     1.7162    -1.3793 H       
  32 H32            4.8622     0.9856     0.2343 H       
  33 H33            5.6727    -1.1811    -0.6584 H       
  34 H34            5.8483    -0.4506    -2.2720 H       
  35 H35            7.4051     1.1239    -1.2699 H       
  36 H36           -0.9689     4.4997     0.1987 H       
  37 H37           -1.5394     0.0366    -1.8763 H       
  38 H38           -3.4634     1.4664    -1.4411 H       
  39 H39           -3.1789     3.6828    -0.4192 H       
  40 H40            8.0597    -1.6763    -0.6228 H       
  41 H41            8.2353    -0.9457    -2.2364 H       
  42 H42            9.6112     0.0773     0.2872 H       
  43 H43           10.4458    -2.1609    -0.4110 H       
  44 H44           10.7181    -1.5361    -2.0559 H       
  45 H45            9.9818     0.7480    -2.6676 H       
  46 H46            9.1734     1.7861    -1.4680 H       
  47 H47           11.5831     2.4139    -1.8569 H       
  48 H48           11.2422     1.9641    -0.1661 H       
  49 H49           12.0553    -0.5581     0.5093 H       
  50 H50           12.8309    -1.4568    -0.8204 H       
  51 H51           16.0282     0.8919    -2.8482 H       
  52 H52           16.4302    -0.7352    -2.2488 H       
  53 H53           15.2727    -0.5405    -3.5869 H       
  54 H54           14.1405    -1.7027    -0.4988 H       
  55 H55           15.6773    -0.8748    -0.1506 H       
  56 H56           14.1370    -0.1455     0.3634 H       
@<TRIPOS>BOND
   1    1    2 ar
   2    1    3 ar
   3    1   12 ar
   4    2   13 ar
   5    2    6 ar
   6    3    4 ar
   7    3   28 1
   8    4    5 ar
   9    4   29 1
  10    5    6 ar
  11    5    7 1
  12    6   30 1
  13    7    8 1
  14    7   11 2
  15    8    9 1
  16    8   31 1
  17    8   32 1
  18    9   10 1
  19    9   33 1
  20    9   34 1
  21   10   16 1
  22   10   35 1
  23   12   15 ar
  24   12   36 1
  25   13   14 ar
  26   13   37 1
  27   14   15 ar
  28   14   38 1
  29   15   39 1
  30   16   17 1
  31   16   40 1
  32   16   41 1
  33   17   18 1
  34   17   19 1
  35   17   42 1
  36   18   22 1
  37   18   43 1
  38   18   44 1
  39   19   20 1
  40   19   45 1
  41   19   46 1
  42   20   21 1
  43   20   47 1
  44   20   48 1
  45   21   22 1
  46   21   23 am
  47   22   49 1
  48   22   50 1
  49   23   24 2
  50   23   25 am
  51   25   26 1
  52   25   27 1
  53   26   51 1
  54   26   52 1
  55   26   53 1
  56   27   54 1
  57   27   55 1
  58   27   56 1

#	End of record

