#	Name: ASD08830255
#	Creating user name:	WinNT
#	Creation time:	15. 06. 2019 21:20

#	Modifying user name:	WinNT
#	Modification time:	15. 06. 2019 21:20

#	Program:	/corina/corina34_cracker 3.40 0067  02.08.2006

@<TRIPOS>MOLECULE
ASD08830255
  53   56    0    0    0
SMALL
NO_CHARGES


@<TRIPOS>ATOM
   1 C1            -0.2414     1.4679     0.1672 C.ar    
   2 C2            -0.2770     0.0920     0.2727 C.ar    
   3 C3             0.9094    -0.6281     0.4079 C.ar    
   4 C4             2.1284     0.0445     0.4357 C.ar    
   5 C5             2.1554     1.4271     0.3287 C.ar    
   6 C6             0.9680     2.1364     0.1947 C.ar    
   7 C7             0.8730    -2.1063     0.5223 C.ar    
   8 C8            -0.1742    -2.7406     1.1979 C.ar    
   9 C9            -0.1650    -4.1228     1.2787 C.ar    
  10 N10            0.8267    -4.7972     0.7185 N.ar    
  11 C11            1.8062    -4.1693     0.0844 C.ar    
  12 N12            1.8336    -2.8500    -0.0212 N.ar    
  13 N13            2.8255    -4.9132    -0.4877 N.pl3   
  14 N14            3.3771     2.1071     0.3565 N.am    
  15 C15            4.4784     1.5360    -0.1702 C.2     
  16 C16            5.7843     2.2000    -0.0412 C.2     
  17 C17            6.8712     1.6363    -0.5611 C.2     
  18 O18            4.3922     0.4715    -0.7522 O.2     
  19 Cl19          -1.4552    -1.8170     1.9189 Cl      
  20 C20            2.8762    -6.2993    -0.2912 C.ar    
  21 C21            3.3650    -7.1252    -1.2948 C.ar    
  22 C22            3.4153    -8.4930    -1.1004 C.ar    
  23 C23            2.9764    -9.0404     0.1000 C.ar    
  24 C24            2.4881    -8.2135     1.1021 C.ar    
  25 C25            2.4431    -6.8465     0.9092 C.ar    
  26 N26            3.0266   -10.4267     0.2979 N.3     
  27 C27            3.8771   -10.7643     1.4485 C.3     
  28 C28            3.8560   -12.2797     1.6647 C.3     
  29 O29            4.2822   -12.9332     0.4661 O.3     
  30 C30            3.4755   -12.6274    -0.6745 C.3     
  31 C31            3.4928   -11.1154    -0.9144 C.3     
  32 F32            3.8903    -9.2973    -2.0764 F       
  33 H33           -1.1612     2.0234     0.0585 H       
  34 H34           -1.2239    -0.4268     0.2508 H       
  35 H35            3.0500    -0.5088     0.5406 H       
  36 H36            0.9903     3.2129     0.1111 H       
  37 H37           -0.9580    -4.6449     1.7933 H       
  38 H38            3.5040    -4.4743    -1.0242 H       
  39 H39            3.4319     2.9898     0.7549 H       
  40 H40            5.8608     3.1452     0.4756 H       
  41 H41            6.7947     0.6911    -1.0779 H       
  42 H42            7.8302     2.1239    -0.4664 H       
  43 H43            3.7054    -6.6992    -2.2270 H       
  44 H44            2.1469    -8.6387     2.0344 H       
  45 H45            2.0630    -6.2036     1.6894 H       
  46 H46            4.8989   -10.4386     1.2537 H       
  47 H47            3.4987   -10.2641     2.3400 H       
  48 H48            4.5299   -12.5404     2.4808 H       
  49 H49            2.8433   -12.5980     1.9124 H       
  50 H50            3.8743   -13.1394    -1.5502 H       
  51 H51            2.4518   -12.9557    -0.4948 H       
  52 H52            2.8339   -10.8715    -1.7477 H       
  53 H53            4.5085   -10.7954    -1.1470 H       
@<TRIPOS>BOND
   1    1    2 ar
   2    1    6 ar
   3    1   33 1
   4    2    3 ar
   5    2   34 1
   6    3    4 ar
   7    3    7 1
   8    4    5 ar
   9    4   35 1
  10    5    6 ar
  11    5   14 1
  12    6   36 1
  13    7    8 ar
  14    7   12 ar
  15    8    9 ar
  16    8   19 1
  17    9   10 ar
  18    9   37 1
  19   10   11 ar
  20   11   12 ar
  21   11   13 1
  22   13   20 1
  23   13   38 1
  24   14   15 am
  25   14   39 1
  26   15   16 1
  27   15   18 2
  28   16   17 2
  29   16   40 1
  30   17   41 1
  31   17   42 1
  32   20   21 ar
  33   20   25 ar
  34   21   22 ar
  35   21   43 1
  36   22   23 ar
  37   22   32 1
  38   23   24 ar
  39   23   26 1
  40   24   25 ar
  41   24   44 1
  42   25   45 1
  43   26   27 1
  44   26   31 1
  45   27   28 1
  46   27   46 1
  47   27   47 1
  48   28   29 1
  49   28   48 1
  50   28   49 1
  51   29   30 1
  52   30   31 1
  53   30   50 1
  54   30   51 1
  55   31   52 1
  56   31   53 1

#	End of record

