#	Name: ASD01910797
#	Creating user name:	WinNT
#	Creation time:	15. 06. 2019 19:56

#	Modifying user name:	WinNT
#	Modification time:	15. 06. 2019 19:56

#	Program:	/corina/corina34_cracker 3.40 0067  02.08.2006

@<TRIPOS>MOLECULE
ASD01910797
  58   61    0    0    0
SMALL
NO_CHARGES


@<TRIPOS>ATOM
   1 C1             0.0780     1.7662    -0.3846 C.ar    
   2 C2             0.0185     0.3817    -0.4107 C.ar    
   3 N3             1.1428    -0.3135    -0.3627 N.ar    
   4 C4             2.3153     0.2992    -0.2905 C.ar    
   5 N5             2.4069     1.6207    -0.2638 N.ar    
   6 C6             1.3210     2.3747    -0.3088 C.ar    
   7 N7             3.4720    -0.4593    -0.2413 N.3     
   8 C8             4.6616     0.3991    -0.1642 C.3     
   9 C9             5.9010    -0.4710     0.0703 C.3     
  10 N10            5.9484    -1.5073    -0.9723 N.am    
  11 C11            4.7434    -2.3187    -1.2022 C.3     
  12 C12            3.5496    -1.3759    -1.3867 C.3     
  13 C13            7.0665    -1.7084    -1.6974 C.2     
  14 C14            7.1352    -2.8328    -2.6517 C.ar    
  15 O15            8.0186    -0.9639    -1.5656 O.2     
  16 C16            7.7583    -2.6606    -3.8916 C.ar    
  17 C17            7.8252    -3.7069    -4.7862 C.ar    
  18 C18            7.2751    -4.9388    -4.4635 C.ar    
  19 C19            6.6472    -5.1240    -3.2210 C.ar    
  20 C20            6.5839    -4.0684    -2.3144 C.ar    
  21 C21            6.0781    -6.3945    -2.8855 C.1     
  22 C22            5.6116    -7.4361    -2.6105 C.1     
  23 C23            5.0426    -8.7067    -2.2751 C.ar    
  24 C24            4.4176    -8.8918    -1.0390 C.ar    
  25 C25            3.8714   -10.1181    -0.7231 C.ar    
  26 C26            3.9415   -11.1640    -1.6265 C.ar    
  27 C27            4.5592   -10.9883    -2.8523 C.ar    
  28 C28            5.1044    -9.7658    -3.1846 C.ar    
  29 O29            7.3433    -5.9646    -5.3483 O.3     
  30 C30            7.9959    -5.7054    -6.5929 C.3     
  31 C31           -1.3111    -0.3231    -0.4922 C.3     
  32 C32            1.4341     3.8771    -0.2784 C.3     
  33 H33           -0.8243     2.3581    -0.4270 H       
  34 H34            4.7746     0.9488    -1.0987 H       
  35 H35            4.5496     1.1026     0.6608 H       
  36 H36            6.7976     0.1462     0.0142 H       
  37 H37            5.8377    -0.9414     1.0516 H       
  38 H38            4.8747    -2.9231    -2.0998 H       
  39 H39            4.5689    -2.9667    -0.3433 H       
  40 H40            2.6312    -1.9596    -1.4483 H       
  41 H41            3.6781    -0.8015    -2.3041 H       
  42 H42            8.1883    -1.7041    -4.1493 H       
  43 H43            8.3076    -3.5671    -5.7423 H       
  44 H44            6.1028    -4.2042    -1.3570 H       
  45 H45            4.3628    -8.0766    -0.3327 H       
  46 H46            3.3880   -10.2627     0.2318 H       
  47 H47            3.5123   -12.1222    -1.3736 H       
  48 H48            4.6108   -11.8093    -3.5521 H       
  49 H49            5.5863    -9.6301    -4.1416 H       
  50 H50            7.9806    -6.6067    -7.2057 H       
  51 H51            7.4763    -4.9021    -7.1153 H       
  52 H52            9.0284    -5.4098    -6.4072 H       
  53 H53           -1.5777    -0.4760    -1.5380 H       
  54 H54           -1.2422    -1.2880     0.0100 H       
  55 H55           -2.0750     0.2851    -0.0077 H       
  56 H56            1.5154     4.2560    -1.2972 H       
  57 H57            0.5481     4.2987     0.1963 H       
  58 H58            2.3206     4.1634     0.2876 H       
@<TRIPOS>BOND
   1    1    2 ar
   2    1    6 ar
   3    1   33 1
   4    2    3 ar
   5    2   31 1
   6    3    4 ar
   7    4    5 ar
   8    4    7 1
   9    5    6 ar
  10    6   32 1
  11    7    8 1
  12    7   12 1
  13    8    9 1
  14    8   34 1
  15    8   35 1
  16    9   10 1
  17    9   36 1
  18    9   37 1
  19   10   11 1
  20   10   13 am
  21   11   12 1
  22   11   38 1
  23   11   39 1
  24   12   40 1
  25   12   41 1
  26   13   14 1
  27   13   15 2
  28   14   16 ar
  29   14   20 ar
  30   16   17 ar
  31   16   42 1
  32   17   18 ar
  33   17   43 1
  34   18   19 ar
  35   18   29 1
  36   19   20 ar
  37   19   21 1
  38   20   44 1
  39   21   22 3
  40   22   23 1
  41   23   24 ar
  42   23   28 ar
  43   24   25 ar
  44   24   45 1
  45   25   26 ar
  46   25   46 1
  47   26   27 ar
  48   26   47 1
  49   27   28 ar
  50   27   48 1
  51   28   49 1
  52   29   30 1
  53   30   50 1
  54   30   51 1
  55   30   52 1
  56   31   53 1
  57   31   54 1
  58   31   55 1
  59   32   56 1
  60   32   57 1
  61   32   58 1

#	End of record

