#	Name: ASD01915420
#	Creating user name:	WinNT
#	Creation time:	15. 06. 2019 20:05

#	Modifying user name:	WinNT
#	Modification time:	15. 06. 2019 20:05

#	Program:	/corina/corina34_cracker 3.40 0067  02.08.2006

@<TRIPOS>MOLECULE
ASD01915420
  22   23    0    0    0
SMALL
NO_CHARGES


@<TRIPOS>ATOM
   1 C1            -0.0169     1.3939     0.0097 C.ar    
   2 C2             0.0021    -0.0041     0.0020 C.ar    
   3 C3             1.2196    -0.6585    -0.0131 C.ar    
   4 C4             2.3821     0.1019    -0.0201 C.ar    
   5 C5             2.2920     1.4814    -0.0118 C.ar    
   6 N6             1.1203     2.0836     0.0026 N.ar    
   7 C7            -1.2694     2.0880     0.0194 C.1     
   8 C8            -2.2962     2.6570     0.0273 C.1     
   9 S9            -6.0076     3.9450     0.0503 S.3     
  10 C10           -4.8265     5.1801     0.0522 C.2     
  11 N11           -3.6429     4.6758     0.0446 N.2     
  12 C12           -3.5487     3.3511     0.0370 C.2     
  13 C13           -4.7449     2.7165     0.0384 C.2     
  14 C14           -5.1296     6.6563     0.0611 C.3     
  15 H15           -0.9211    -0.5645     0.0082 H       
  16 H16            1.2660    -1.7374    -0.0190 H       
  17 H17            3.3482    -0.3806    -0.0315 H       
  18 H18            3.1950     2.0738    -0.0169 H       
  19 H19           -4.8978     1.6474     0.0335 H       
  20 H20           -6.2093     6.8055     0.0664 H       
  21 H21           -4.6956     7.1110     0.9516 H       
  22 H22           -4.7031     7.1201    -0.8283 H       
@<TRIPOS>BOND
   1    1    2 ar
   2    1    6 ar
   3    1    7 1
   4    2    3 ar
   5    2   15 1
   6    3    4 ar
   7    3   16 1
   8    4    5 ar
   9    4   17 1
  10    5    6 ar
  11    5   18 1
  12    7    8 3
  13    8   12 1
  14    9   10 1
  15    9   13 1
  16   10   11 2
  17   10   14 1
  18   11   12 1
  19   12   13 2
  20   13   19 1
  21   14   20 1
  22   14   21 1
  23   14   22 1

#	End of record

