#	Name: ASD01870092
#	Creating user name:	WinNT
#	Creation time:	15. 06. 2019 19:38

#	Modifying user name:	WinNT
#	Modification time:	15. 06. 2019 19:38

#	Program:	/corina/corina34_cracker 3.40 0067  02.08.2006

@<TRIPOS>MOLECULE
ASD01870092
  57   62    0    0    0
SMALL
NO_CHARGES


@<TRIPOS>ATOM
   1 C1            -0.0168     1.3867     0.0097 C.ar    
   2 C2             0.0021    -0.0041     0.0020 C.ar    
   3 N3             1.1139     2.0761     0.0026 N.ar    
   4 C4             2.2893     1.4769    -0.0119 C.ar    
   5 C5             2.3819     0.0994    -0.0202 C.ar    
   6 C6             1.2198    -0.6603    -0.0132 C.ar    
   7 C7             3.7306    -0.5727    -0.0373 C.3     
   8 C8             4.6538    -0.2742    -1.2202 C.3     
   9 C9             4.1449     0.6695    -2.2792 C.2     
  10 O10            3.3702     1.5475    -1.9837 O.2     
  11 C11            4.6026     0.5176    -3.7069 C.3     
  12 C12            3.9420     1.5932    -4.5716 C.3     
  13 C13            4.4068     1.4389    -6.0211 C.3     
  14 C14            5.9275     1.5934    -6.0883 C.3     
  15 C15            6.5881     0.5178    -5.2236 C.3     
  16 C16            6.1233     0.6721    -3.7741 C.3     
  17 C17            4.2073    -0.8668    -4.2247 C.3     
  18 C18            4.6721    -1.0211    -5.6742 C.3     
  19 C19            4.0115     0.0545    -6.5388 C.3     
  20 C20            6.1928    -0.8666    -5.7414 C.3     
  21 C21            4.9634     0.3120     0.1587 C.3     
  22 N22           -1.2334     2.0591     0.0191 N.3     
  23 C23           -1.0306     3.5152     0.0260 C.3     
  24 C24           -2.3915     4.2147    -0.0241 C.3     
  25 O25           -3.1893     3.7739     1.0780 O.3     
  26 C26           -3.4074     2.3607     1.1019 C.3     
  27 C27           -2.0568     1.6423     1.1634 C.3     
  28 H28           -0.9214    -0.5640     0.0082 H       
  29 H29            3.1907     2.0718    -0.0177 H       
  30 H30            1.2655    -1.7393    -0.0191 H       
  31 H31            3.7602    -1.5780     0.3831 H       
  32 H32            5.2908    -1.0830    -1.5782 H       
  33 H33            2.8586     1.4831    -4.5237 H       
  34 H34            4.2237     2.5795    -4.2027 H       
  35 H35            3.9362     2.2052    -6.6370 H       
  36 H36            6.2586     1.4835    -7.1209 H       
  37 H37            6.2091     2.5797    -5.7194 H       
  38 H38            7.6715     0.6279    -5.2715 H       
  39 H39            6.4050     1.6584    -3.4053 H       
  40 H40            6.5940    -0.0942    -3.1582 H       
  41 H41            4.6779    -1.6331    -3.6087 H       
  42 H42            3.1239    -0.9769    -4.1768 H       
  43 H43            4.3904    -2.0074    -6.0430 H       
  44 H44            2.9281    -0.0556    -6.4909 H       
  45 H45            4.3426    -0.0554    -7.5715 H       
  46 H46            6.5239    -0.9765    -6.7740 H       
  47 H47            6.6634    -1.6329    -5.1254 H       
  48 H48            4.7989     1.3803     0.2999 H       
  49 H49            5.8043    -0.1110     0.7082 H       
  50 H50           -0.5056     3.8052     0.9361 H       
  51 H51           -0.4404     3.8046    -0.8434 H       
  52 H52           -2.2487     5.2935     0.0385 H       
  53 H53           -2.8939     3.9671    -0.9592 H       
  54 H54           -3.9993     2.0986     1.9789 H       
  55 H55           -3.9393     2.0591     0.1996 H       
  56 H56           -2.2156     0.5647     1.1243 H       
  57 H57           -1.5482     1.9024     2.0917 H       
@<TRIPOS>BOND
   1    1    2 ar
   2    1    3 ar
   3    1   22 1
   4    2    6 ar
   5    2   28 1
   6    3    4 ar
   7    4    5 ar
   8    4   29 1
   9    5    6 ar
  10    5    7 1
  11    6   30 1
  12    7    8 1
  13    7   21 1
  14    7   31 1
  15    8    9 1
  16    8   21 1
  17    8   32 1
  18    9   10 2
  19    9   11 1
  20   11   12 1
  21   11   17 1
  22   11   16 1
  23   12   13 1
  24   12   33 1
  25   12   34 1
  26   13   14 1
  27   13   19 1
  28   13   35 1
  29   14   15 1
  30   14   36 1
  31   14   37 1
  32   15   16 1
  33   15   20 1
  34   15   38 1
  35   16   39 1
  36   16   40 1
  37   17   18 1
  38   17   41 1
  39   17   42 1
  40   18   19 1
  41   18   20 1
  42   18   43 1
  43   19   44 1
  44   19   45 1
  45   20   46 1
  46   20   47 1
  47   21   48 1
  48   21   49 1
  49   22   23 1
  50   22   27 1
  51   23   24 1
  52   23   50 1
  53   23   51 1
  54   24   25 1
  55   24   52 1
  56   24   53 1
  57   25   26 1
  58   26   27 1
  59   26   54 1
  60   26   55 1
  61   27   56 1
  62   27   57 1

#	End of record

