#	Name: ASD09128001
#	Creating user name:	WinNT
#	Creation time:	15. 06. 2019 21:21

#	Modifying user name:	WinNT
#	Modification time:	15. 06. 2019 21:21

#	Program:	/corina/corina34_cracker 3.40 0067  02.08.2006

@<TRIPOS>MOLECULE
ASD09128001
  62   65    0    0    0
SMALL
NO_CHARGES


@<TRIPOS>ATOM
   1 C1            -0.0121     1.5045    -0.0120 C.2     
   2 C2             0.0041    -0.0024    -0.0071 C.3     
   3 C3            -0.5892    -0.5145     1.3069 C.3     
   4 O4             1.0278     2.1198    -0.0227 O.2     
   5 O5            -1.1816     2.1632    -0.0101 O.3     
   6 O6             1.3503    -0.4647    -0.1342 O.3     
   7 C7             1.5300    -1.7019    -0.6671 C.ar    
   8 C8             2.8114    -2.1698    -0.9208 C.ar    
   9 C9             2.9914    -3.4276    -1.4625 C.ar    
  10 C10            1.8958    -4.2201    -1.7524 C.ar    
  11 C11            0.6181    -3.7560    -1.5011 C.ar    
  12 C12            0.4330    -2.5012    -0.9531 C.ar    
  13 C13            4.0056    -1.3063    -0.6059 C.3     
  14 N14            5.3357    -2.2441     2.6998 N.am    
  15 C15            5.2425    -2.3848     1.3365 C.2     
  16 C16            4.3844    -1.4815     0.8421 C.2     
  17 C17            3.8836    -0.6950     1.9746 C.ar    
  18 C18            2.9850     0.3663     2.0926 C.ar    
  19 C19            2.7194     0.9005     3.3387 C.ar    
  20 C20            3.3440     0.3843     4.4704 C.ar    
  21 C21            4.2330    -0.6630     4.3642 C.ar    
  22 C22            4.5121    -1.2139     3.1195 C.ar    
  23 O23            1.8448     1.9346     3.4599 O.3     
  24 C24            1.6157     2.4394     4.7770 C.3     
  25 F25            2.8213     2.9017     5.3155 F       
  26 F26            0.6966     3.4926     4.7194 F       
  27 F27            1.1049     1.4184     5.5855 F       
  28 C28            5.9938    -3.4032     0.5183 C.3     
  29 C29            6.1076    -2.9985     3.5069 C.2     
  30 C30            7.5246    -2.6458     3.7127 C.ar    
  31 C31            8.3541    -3.4848     4.4626 C.ar    
  32 C32            9.6764    -3.1517     4.6523 C.ar    
  33 C33           10.1871    -1.9829     4.0994 C.ar    
  34 C34            9.3657    -1.1455     3.3534 C.ar    
  35 C35            8.0437    -1.4743     3.1536 C.ar    
  36 O36            5.6358    -3.9696     4.0652 O.2     
  37 O37           11.4910    -1.6583     4.2888 O.3     
  38 C38           11.9503    -0.4434     3.6929 C.3     
  39 H39           -0.5884    -0.3748    -0.8428 H       
  40 H40           -1.6160    -0.1618     1.4038 H       
  41 H41           -0.5775    -1.6044     1.3105 H       
  42 H42            0.0033    -0.1421     2.1426 H       
  43 H43           -1.1414     3.1293    -0.0134 H       
  44 H44            3.9885    -3.7923    -1.6601 H       
  45 H45            2.0386    -5.2031    -2.1763 H       
  46 H46           -0.2359    -4.3767    -1.7287 H       
  47 H47           -0.5652    -2.1410    -0.7524 H       
  48 H48            4.8432    -1.6000    -1.2387 H       
  49 H49            3.7579    -0.2614    -0.7929 H       
  50 H50            2.5004     0.7679     1.2150 H       
  51 H51            3.1303     0.8087     5.4403 H       
  52 H52            4.7127    -1.0560     5.2484 H       
  53 H53            5.4027    -4.3158     0.4423 H       
  54 H54            6.1763    -3.0044    -0.4796 H       
  55 H55            6.9457    -3.6259     1.0003 H       
  56 H56            7.9581    -4.3928     4.8928 H       
  57 H57           10.3178    -3.7992     5.2318 H       
  58 H58            9.7663    -0.2383     2.9258 H       
  59 H59            7.4074    -0.8256     2.5699 H       
  60 H60           11.3789     0.3952     4.0909 H       
  61 H61           13.0070    -0.3038     3.9207 H       
  62 H62           11.8152    -0.4949     2.6125 H       
@<TRIPOS>BOND
   1    1    2 1
   2    1    4 2
   3    1    5 1
   4    2    3 1
   5    2    6 1
   6    2   39 1
   7    3   40 1
   8    3   41 1
   9    3   42 1
  10    5   43 1
  11    6    7 1
  12    7    8 ar
  13    7   12 ar
  14    8    9 ar
  15    8   13 1
  16    9   10 ar
  17    9   44 1
  18   10   11 ar
  19   10   45 1
  20   11   12 ar
  21   11   46 1
  22   12   47 1
  23   13   16 1
  24   13   48 1
  25   13   49 1
  26   14   15 1
  27   14   22 1
  28   14   29 am
  29   15   16 2
  30   15   28 1
  31   16   17 1
  32   17   18 ar
  33   17   22 ar
  34   18   19 ar
  35   18   50 1
  36   19   20 ar
  37   19   23 1
  38   20   21 ar
  39   20   51 1
  40   21   22 ar
  41   21   52 1
  42   23   24 1
  43   24   25 1
  44   24   26 1
  45   24   27 1
  46   28   53 1
  47   28   54 1
  48   28   55 1
  49   29   30 1
  50   29   36 2
  51   30   31 ar
  52   30   35 ar
  53   31   32 ar
  54   31   56 1
  55   32   33 ar
  56   32   57 1
  57   33   34 ar
  58   33   37 1
  59   34   35 ar
  60   34   58 1
  61   35   59 1
  62   37   38 1
  63   38   60 1
  64   38   61 1
  65   38   62 1

#	End of record

