#	Name: ASD02120003
#	Creating user name:	WinNT
#	Creation time:	15. 06. 2019 20:18

#	Modifying user name:	WinNT
#	Modification time:	15. 06. 2019 20:18

#	Program:	/corina/corina34_cracker 3.40 0067  02.08.2006

@<TRIPOS>MOLECULE
ASD02120003
  79   83    0    0    0
SMALL
NO_CHARGES


@<TRIPOS>ATOM
   1 O1            -0.0221    -0.9989    -0.2312 O.2     
   2 C2             0.1193     0.2055    -0.2428 C.2     
   3 C3             1.5020     0.8014    -0.3057 C.3     
   4 N4             2.4960    -0.2742    -0.3440 N.am    
   5 C5             3.7504    -0.0485     0.0942 C.2     
   6 O6             4.0574     1.0487     0.5217 O.2     
   7 C7             4.7453    -1.1253     0.0558 C.2     
   8 C8             6.0443    -1.0324     0.4663 C.2     
   9 C9             6.6265    -2.2914     0.2511 C.2     
  10 C10            5.6695    -3.0875    -0.2746 C.2     
  11 O11            4.5360    -2.3828    -0.3857 O.3     
  12 C12            1.6307     1.6598    -1.5656 C.3     
  13 C13            2.9891     2.3638    -1.5666 C.3     
  14 C14            3.1695     3.1223    -2.8830 C.3     
  15 C15            4.5279     3.8263    -2.8839 C.3     
  16 C16            4.5928     4.8112    -1.7148 C.3     
  17 C17            4.4124     4.0526    -0.3984 C.3     
  18 C18            3.0540     3.3486    -0.3975 C.3     
  19 N19           -0.9606     1.0112    -0.2052 N.am    
  20 C20           -2.3051     0.4319    -0.1502 C.3     
  21 C21           -3.3433     1.5552    -0.1158 C.3     
  22 O22           -3.2969     2.2862    -1.3435 O.3     
  23 C23           -4.1922     3.3995    -1.3960 C.3     
  24 C24           -5.6347     2.8928    -1.2847 C.3     
  25 N25           -5.7333     2.0304    -0.0965 N.am    
  26 C26           -4.7424     0.9541     0.0611 C.3     
  27 C27           -6.7023     2.2211     0.8206 C.2     
  28 O28           -7.4485     3.1757     0.7268 O.2     
  29 C29           -6.8577     1.2677     1.9423 C.ar    
  30 C30           -7.1547     1.7386     3.2223 C.ar    
  31 C31           -7.2995     0.8515     4.2666 C.ar    
  32 C32           -7.1490    -0.5190     4.0443 C.ar    
  33 C33           -6.8519    -0.9898     2.7635 C.ar    
  34 C34           -6.7129    -0.1025     1.7186 C.ar    
  35 C35           -7.3038    -1.4717     5.1653 C.2     
  36 O36           -7.6272    -2.6222     4.9447 O.2     
  37 C37           -7.0654    -1.0247     6.5528 C.ar    
  38 C38           -7.6038    -1.7424     7.6237 C.ar    
  39 C39           -7.3767    -1.3194     8.9166 C.ar    
  40 C40           -6.6179    -0.1867     9.1544 C.ar    
  41 C41           -6.0818     0.5294     8.0983 C.ar    
  42 C42           -6.2956     0.1146     6.8005 C.ar    
  43 H43            1.6710     1.4210     0.5750 H       
  44 H44            2.2512    -1.1488    -0.6847 H       
  45 H45            6.5298    -0.1593     0.8767 H       
  46 H46            7.6474    -2.5712     0.4655 H       
  47 H47            5.7967    -4.1225    -0.5554 H       
  48 H48            1.5500     1.0247    -2.4478 H       
  49 H49            0.8353     2.4049    -1.5804 H       
  50 H50            3.7822     1.6233    -1.4623 H       
  51 H51            3.1233     2.4207    -3.7159 H       
  52 H52            2.3765     3.8628    -2.9873 H       
  53 H53            5.3210     3.0859    -2.7797 H       
  54 H54            4.6564     4.3667    -3.8218 H       
  55 H55            5.5605     5.3127    -1.7155 H       
  56 H56            3.7997     5.5516    -1.8191 H       
  57 H57            5.2054     3.3121    -0.2941 H       
  58 H58            4.4586     4.7542     0.4345 H       
  59 H59            2.2609     4.0891    -0.5017 H       
  60 H60            2.9255     2.8082     0.5404 H       
  61 H61           -0.8475     1.9745    -0.2145 H       
  62 H62           -2.4698    -0.1883    -1.0313 H       
  63 H63           -2.4010    -0.1791     0.7473 H       
  64 H64           -3.1266     2.2259     0.7157 H       
  65 H65           -3.9795     4.0771    -0.5691 H       
  66 H66           -4.0632     3.9261    -2.3416 H       
  67 H67           -6.3140     3.7389    -1.1816 H       
  68 H68           -5.8926     2.3207    -2.1759 H       
  69 H69           -4.9105     0.1868    -0.6946 H       
  70 H70           -4.8308     0.5163     1.0554 H       
  71 H71           -7.2707     2.7985     3.3941 H       
  72 H72           -7.5289     1.2160     5.2570 H       
  73 H73           -6.7354    -2.0496     2.5912 H       
  74 H74           -6.4831    -0.4664     0.7281 H       
  75 H75           -8.1967    -2.6261     7.4395 H       
  76 H76           -7.7923    -1.8732     9.7454 H       
  77 H77           -6.4435     0.1402    10.1688 H       
  78 H78           -5.4909     1.4126     8.2912 H       
  79 H79           -5.8767     0.6743     5.9774 H       
@<TRIPOS>BOND
   1    1    2 2
   2    2    3 1
   3    2   19 am
   4    3    4 1
   5    3   12 1
   6    3   43 1
   7    4    5 am
   8    4   44 1
   9    5    6 2
  10    5    7 1
  11    7    8 2
  12    7   11 1
  13    8    9 1
  14    8   45 1
  15    9   10 2
  16    9   46 1
  17   10   11 1
  18   10   47 1
  19   12   13 1
  20   12   48 1
  21   12   49 1
  22   13   14 1
  23   13   18 1
  24   13   50 1
  25   14   15 1
  26   14   51 1
  27   14   52 1
  28   15   16 1
  29   15   53 1
  30   15   54 1
  31   16   17 1
  32   16   55 1
  33   16   56 1
  34   17   18 1
  35   17   57 1
  36   17   58 1
  37   18   59 1
  38   18   60 1
  39   19   20 1
  40   19   61 1
  41   20   21 1
  42   20   62 1
  43   20   63 1
  44   21   22 1
  45   21   26 1
  46   21   64 1
  47   22   23 1
  48   23   24 1
  49   23   65 1
  50   23   66 1
  51   24   25 1
  52   24   67 1
  53   24   68 1
  54   25   26 1
  55   25   27 am
  56   26   69 1
  57   26   70 1
  58   27   28 2
  59   27   29 1
  60   29   30 ar
  61   29   34 ar
  62   30   31 ar
  63   30   71 1
  64   31   32 ar
  65   31   72 1
  66   32   33 ar
  67   32   35 1
  68   33   34 ar
  69   33   73 1
  70   34   74 1
  71   35   36 2
  72   35   37 1
  73   37   38 ar
  74   37   42 ar
  75   38   39 ar
  76   38   75 1
  77   39   40 ar
  78   39   76 1
  79   40   41 ar
  80   40   77 1
  81   41   42 ar
  82   41   78 1
  83   42   79 1

#	End of record

