#	Name: ASD01720018
#	Creating user name:	WinNT
#	Creation time:	15. 06. 2019 19:23

#	Modifying user name:	WinNT
#	Modification time:	15. 06. 2019 19:23

#	Program:	/corina/corina34_cracker 3.40 0067  02.08.2006

@<TRIPOS>MOLECULE
ASD01720018
  20   19    0    0    0
SMALL
NO_CHARGES


@<TRIPOS>ATOM
   1 C1            -0.0184     1.5028     0.0103 C.2     
   2 C2             0.0021    -0.0041     0.0020 C.3     
   3 C3            -0.7002    -0.5305     1.2552 C.3     
   4 C4            -0.5710    -2.0541     1.3102 C.3     
   5 C5            -1.2733    -2.5805     2.5634 C.3     
   6 O6             1.0191     2.1207     0.0037 O.2     
   7 O7            -1.0538    -3.9880     2.6767 O.3     
   8 O8            -1.1767    -2.6258     0.1491 O.3     
   9 O9            -0.0945     0.0411     2.4164 O.3     
  10 O10            1.3556    -0.4620    -0.0134 O.3     
  11 H11           -0.9609     2.0300     0.0176 H       
  12 H12           -0.5153    -0.3696    -0.8850 H       
  13 H13           -1.7547    -0.2563     1.2231 H       
  14 H14            0.4835    -2.3283     1.3424 H       
  15 H15           -0.8713    -2.0782     3.4433 H       
  16 H16           -2.3430    -2.3844     2.4900 H       
  17 H17           -1.4715    -4.3902     3.4506 H       
  18 H18           -2.1175    -2.4224     0.0557 H       
  19 H19            0.8462    -0.1622     2.5098 H       
  20 H20            1.8770    -0.1738     0.7483 H       
@<TRIPOS>BOND
   1    1    2 1
   2    1    6 2
   3    1   11 1
   4    2    3 1
   5    2   10 1
   6    2   12 1
   7    3    4 1
   8    3    9 1
   9    3   13 1
  10    4    5 1
  11    4    8 1
  12    4   14 1
  13    5    7 1
  14    5   15 1
  15    5   16 1
  16    7   17 1
  17    8   18 1
  18    9   19 1
  19   10   20 1

#	End of record

