#	Name: ASD04570036
#	Creating user name:	WinNT
#	Creation time:	15. 06. 2019 20:49

#	Modifying user name:	WinNT
#	Modification time:	15. 06. 2019 20:49

#	Program:	/corina/corina34_cracker 3.40 0067  02.08.2006

@<TRIPOS>MOLECULE
ASD04570036
 337  339    0    0    0
SMALL
NO_CHARGES


@<TRIPOS>ATOM
   1 C1            -0.0187     1.5258     0.0104 C.3     
   2 C2             0.0021    -0.0041     0.0020 C.3     
   3 C3            -1.4333    -0.5336     0.0129 C.3     
   4 C4            -1.4126    -2.0635     0.0045 C.3     
   5 C5            -2.8479    -2.5931     0.0153 C.3     
   6 C6            -2.8272    -4.1229     0.0069 C.3     
   7 C7            -4.2626    -4.6525     0.0178 C.3     
   8 C8            -4.2418    -6.1823     0.0094 C.3     
   9 C9            -5.6772    -6.7119     0.0202 C.3     
  10 C10           -5.6565    -8.2417     0.0118 C.3     
  11 C11           -7.0918    -8.7713     0.0227 C.3     
  12 C12           -7.0711   -10.3012     0.0143 C.3     
  13 C13           -8.5065   -10.8307     0.0251 C.3     
  14 C14           -8.4857   -12.3606     0.0167 C.3     
  15 C15           -9.8995   -12.8822     0.0274 C.2     
  16 N16          -10.1278   -14.2105     0.0224 N.am    
  17 O17          -10.8319   -12.1067     0.0405 O.2     
  18 C18          -11.5022   -14.7176     0.0328 C.3     
  19 C19          -11.4818   -16.2244     0.0246 C.2     
  20 N20          -12.6397   -16.9141     0.0319 N.am    
  21 O21          -10.4234   -16.8164     0.0113 O.2     
  22 C22          -12.6198   -18.3789     0.0239 C.3     
  23 C23          -14.0336   -18.9006     0.0345 C.2     
  24 N24          -14.2619   -20.2288     0.0296 N.am    
  25 O25          -14.9660   -18.1251     0.0476 O.2     
  26 C26          -15.6363   -20.7359     0.0400 C.3     
  27 C27          -15.6677   -22.1146    -0.5676 C.2     
  28 O28          -14.6429   -22.6236    -0.9697 O.2     
  29 N29          -16.8345   -22.7821    -0.6641 N.am    
  30 C30          -16.1445   -20.8022     1.4816 C.3     
  31 C31          -16.2295   -19.4087     2.0489 C.ar    
  32 C32          -17.3963   -18.6790     1.9152 C.ar    
  33 C33          -16.8650   -24.1224    -1.2548 C.3     
  34 C34          -16.9741   -24.0068    -2.7765 C.3     
  35 C35          -18.0543   -24.8792    -0.7220 C.2     
  36 O36          -18.8028   -24.3511     0.0728 O.2     
  37 N37          -18.2862   -26.1430    -1.1288 N.am    
  38 C38          -15.7083   -23.3492    -3.3300 C.3     
  39 C39          -15.8157   -23.2353    -4.8289 C.2     
  40 N40          -14.8101   -22.6835    -5.5365 N.am    
  41 C41          -19.4424   -26.8788    -0.6109 C.3     
  42 C42          -20.6788   -26.5390    -1.4457 C.3     
  43 C43          -19.1730   -28.3593    -0.6918 C.2     
  44 O44          -18.1191   -28.7604    -1.1381 O.2     
  45 N45          -20.1034   -29.2376    -0.2681 N.am    
  46 C46          -19.8415   -30.6769    -0.3467 C.3     
  47 C47          -21.1693   -31.4337    -0.4184 C.3     
  48 C48          -19.0667   -31.1228     0.8950 C.3     
  49 C49          -21.8874   -31.0811    -1.7226 C.3     
  50 C50          -23.2152   -31.8379    -1.7943 C.3     
  51 C51          -17.4766   -17.4013     2.4344 C.ar    
  52 C52          -16.3853   -16.8505     3.0903 C.ar    
  53 C53          -15.2157   -17.5846     3.2231 C.ar    
  54 C54          -15.1423   -18.8640     2.7071 C.ar    
  55 O55          -16.4617   -15.5936     3.6015 O.3     
  56 O56          -16.8070   -23.6402    -5.3983 O.2     
  57 C57          -23.9334   -31.4854    -3.0984 C.3     
  58 N58          -25.2083   -32.2120    -3.1673 N.3     
  59 C59            1.4167     2.0553    -0.0004 C.3     
  60 H60           -9.3821   -14.8307     0.0120 H       
  61 C61          -21.0259   -25.0600    -1.2644 C.3     
  62 C62          -22.2623   -24.7202    -2.0992 C.3     
  63 C63          -22.6093   -23.2412    -1.9179 C.3     
  64 N64          -23.7964   -22.9150    -2.7194 N.3     
  65 H65           -0.5459     1.8868    -0.8726 H       
  66 H66           -0.5289     1.8773     0.9072 H       
  67 H67            0.5123    -0.3556    -0.8948 H       
  68 H68            0.5293    -0.3651     0.8851 H       
  69 H69           -1.9435    -0.1821     0.9097 H       
  70 H70           -1.9605    -0.1726    -0.8702 H       
  71 H71           -0.9024    -2.4150    -0.8923 H       
  72 H72           -0.8854    -2.4246     0.8875 H       
  73 H73           -3.3581    -2.2415     0.9121 H       
  74 H74           -3.3751    -2.2320    -0.8677 H       
  75 H75           -2.3170    -4.4744    -0.8899 H       
  76 H76           -2.3000    -4.4840     0.8900 H       
  77 H77           -4.7728    -4.3010     0.9146 H       
  78 H78           -4.7898    -4.2914    -0.8653 H       
  79 H79           -3.7316    -6.5338    -0.8874 H       
  80 H80           -3.7146    -6.5434     0.8924 H       
  81 H81           -6.1874    -6.3604     0.9170 H       
  82 H82           -6.2044    -6.3508    -0.8628 H       
  83 H83           -5.1463    -8.5933    -0.8850 H       
  84 H84           -5.1293    -8.6028     0.8949 H       
  85 H85           -7.6020    -8.4198     0.9195 H       
  86 H86           -7.6190    -8.4102    -0.8604 H       
  87 H87           -6.5609   -10.6527    -0.8825 H       
  88 H88           -6.5439   -10.6622     0.8973 H       
  89 H89           -9.0167   -10.4792     0.9219 H       
  90 H90           -9.0337   -10.4697    -0.8579 H       
  91 H91           -7.9755   -12.7121    -0.8801 H       
  92 H92           -7.9586   -12.7217     0.8998 H       
  93 H93          -12.0124   -14.3660     0.9296 H       
  94 H94          -12.0294   -14.3565    -0.8502 H       
  95 H95          -13.4862   -16.4406     0.0425 H       
  96 H96          -12.1096   -18.7305    -0.8729 H       
  97 H97          -12.0926   -18.7400     0.9069 H       
  98 H98          -13.5162   -20.8491     0.0191 H       
  99 H99          -16.2741   -20.0688    -0.5398 H       
 100 H100         -17.6542   -22.3751    -0.3425 H       
 101 H101         -17.1328   -21.2619     1.4977 H       
 102 H102         -15.4570   -21.3977     2.0822 H       
 103 H103         -18.2455   -19.1081     1.4042 H       
 104 H104         -15.9498   -24.6547    -0.9955 H       
 105 H105         -17.0861   -25.0009    -3.2094 H       
 106 H106         -17.8415   -23.3988    -3.0335 H       
 107 H107         -17.6876   -26.5655    -1.7645 H       
 108 H108         -15.5963   -22.3552    -2.8972 H       
 109 H109         -14.8409   -23.9573    -3.0731 H       
 110 H110         -14.0173   -22.3597    -5.0811 H       
 111 H111         -14.8793   -22.6102    -6.5013 H       
 112 H112         -19.6166   -26.5973     0.4276 H       
 113 H113         -20.4729   -26.7376    -2.4975 H       
 114 H114         -21.5183   -27.1521    -1.1177 H       
 115 H115         -20.9463   -28.9168     0.0889 H       
 116 H116         -19.2527   -30.8909    -1.2387 H       
 117 H117         -20.9782   -32.5064    -0.3873 H       
 118 H118         -21.7946   -31.1513     0.4285 H       
 119 H119         -18.8718   -32.1937     0.8365 H       
 120 H120         -18.1207   -30.5837     0.9461 H       
 121 H121         -19.6555   -30.9089     1.7869 H       
 122 H122         -22.0785   -30.0085    -1.7536 H       
 123 H123         -21.2621   -31.3635    -2.5695 H       
 124 H124         -23.0242   -32.9106    -1.7632 H       
 125 H125         -23.8406   -31.5556    -0.9473 H       
 126 H126         -18.3881   -16.8317     2.3294 H       
 127 H127         -14.3647   -17.1580     3.7332 H       
 128 H128         -14.2321   -19.4361     2.8105 H       
 129 H129         -16.7777   -15.5590     4.5147 H       
 130 H130         -24.1244   -30.4127    -3.1295 H       
 131 H131         -23.3081   -31.7677    -3.9454 H       
 132 H132         -25.7799   -32.0166    -2.3591 H       
 133 H133         -25.7020   -31.9959    -4.0203 H       
 134 H134           1.4019     3.1452     0.0056 H       
 135 H135           1.9439     1.6943     0.8826 H       
 136 H136           1.9269     1.7038    -0.8972 H       
 137 H137         -21.2318   -24.8614    -0.2126 H       
 138 H138         -20.1864   -24.4469    -1.5923 H       
 139 H139         -22.0563   -24.9188    -3.1509 H       
 140 H140         -23.1017   -25.3333    -1.7712 H       
 141 H141         -22.8153   -23.0426    -0.8661 H       
 142 H142         -21.7698   -22.6281    -2.2458 H       
 143 H143         -24.0461   -21.9428    -2.6165 H       
 144 H144         -23.6534   -23.1509    -3.6899 H       
 145 C145          25.0465    17.7817    24.2760 C.3     
 146 C146          26.0531    18.7625    23.6712 C.3     
 147 C147          25.3361    20.0155    23.2391 C.2     
 148 N148          27.0674    19.1009    24.6727 N.am    
 149 N149          24.3547    19.9468    22.3179 N.am    
 150 O150          25.6422    21.0859    23.7203 O.2     
 151 C151          23.6577    21.1649    21.8978 C.3     
 152 C152          22.2855    20.8078    21.3873 C.2     
 153 N153          21.3252    21.7510    21.3196 N.am    
 154 O154          22.0454    19.6717    21.0373 O.2     
 155 C155          20.0168    21.4244    20.7471 C.3     
 156 C156          19.6217    22.4896    19.7570 C.2     
 157 O157          20.3603    23.4291    19.5499 O.2     
 158 N158          18.4476    22.3983    19.1016 N.am    
 159 C159          18.0634    23.4338    18.1391 C.3     
 160 C160          18.6814    23.1172    16.7757 C.3     
 161 C161          16.5621    23.4710    18.0137 C.2     
 162 O162          15.8802    22.7078    18.6643 O.2     
 163 N163          15.9773    24.3525    17.1786 N.am    
 164 C164          14.5178    24.3887    17.0567 C.3     
 165 C165          14.0653    23.3438    16.0348 C.3     
 166 C166          14.0857    25.7582    16.5998 C.2     
 167 O167          14.9152    26.6193    16.3961 O.2     
 168 N168          12.7775    26.0262    16.4176 N.am    
 169 C169          12.3574    27.3576    15.9735 C.3     
 170 C170          11.0063    27.2554    15.2628 C.3     
 171 C171          12.2294    28.2683    17.1673 C.2     
 172 O172          12.4658    27.8467    18.2797 O.2     
 173 N173          11.8523    29.5512    16.9989 N.am    
 174 C174          11.1645    26.4327    13.9825 C.3     
 175 C175           9.8134    26.3305    13.2718 C.3     
 176 N176           9.9648    25.5428    12.0459 N.pl3   
 177 C177           8.8771    25.3152    11.2364 C.2     
 178 C178          24.4536    21.8499    20.7851 C.3     
 179 C179          23.7645    23.1598    20.3974 C.3     
 180 O180          25.7772    22.1266    21.2471 O.3     
 181 C181          18.9741    21.3549    21.8646 C.3     
 182 C182          19.2919    20.1982    22.7768 C.2     
 183 O183          18.4811    19.9144    23.8082 O.3     
 184 O184          20.2765    19.5262    22.5798 O.2     
 185 C185          20.2058    23.2020    16.8746 C.3     
 186 C186          20.8237    22.8855    15.5112 C.3     
 187 C187          22.3482    22.9703    15.6101 C.3     
 188 N188          22.9415    22.6664    14.3011 N.3     
 189 C189          14.3883    21.9648    16.5497 C.ar    
 190 C190          13.4630    21.2798    17.3155 C.ar    
 191 C191          15.6071    21.3845    16.2509 C.ar    
 192 C192          15.9054    20.1203    16.7213 C.ar    
 193 C193          14.9808    19.4331    17.4942 C.ar    
 194 C194          13.7567    20.0156    17.7887 C.ar    
 195 N195           9.0192    24.5760    10.0859 N.pl3   
 196 N196           7.7113    25.8002    11.5595 N.2     
 197 C197          11.7278    30.4365    18.1595 C.3     
 198 C198          10.3632    30.2675    18.7762 C.2     
 199 C199          11.9102    31.8890    17.7148 C.3     
 200 C200          13.3309    32.0847    17.1818 C.3     
 201 N201          10.0216    30.9863    19.8639 N.am    
 202 O202           9.5725    29.4846    18.2938 O.2     
 203 C203          13.4590    33.4821    16.5722 C.3     
 204 O204          15.2718    18.1892    17.9578 O.3     
 205 C205          14.3313    31.9355    18.3298 C.3     
 206 C206          25.7406    16.4827    24.5953 C.2     
 207 C207          25.7611    15.8704    25.7946 C.2     
 208 N208          26.4977    14.7267    25.6427 N.pl3   
 209 C209          26.9019    14.6799    24.3550 C.2     
 210 N210          26.4412    15.7307    23.7334 N.2     
 211 C211          28.1409    18.3035    24.8407 C.2     
 212 O212          28.2673    17.3058    24.1628 O.2     
 213 C213          29.1842    18.6516    25.8709 C.3     
 214 N214          30.2494    17.6382    25.8661 N.am    
 215 C215          30.3257    17.0261    27.2051 C.3     
 216 C216          28.9193    17.2386    27.8189 C.3     
 217 C217          28.5533    18.6465    27.2793 C.3     
 218 C218          31.0268    17.3208    24.8119 C.2     
 219 O219          30.8747    17.8915    23.7526 O.2     
 220 C220          32.0851    16.2567    24.9494 C.3     
 221 C221          31.4367    14.8753    24.8385 C.3     
 222 N222          33.0792    16.4164    23.8852 N.am    
 223 C223          32.7026    16.3361    22.5936 C.2     
 224 C224          32.4885    13.7958    25.1019 C.3     
 225 C225          31.8402    12.4144    24.9911 C.3     
 226 N226          32.8472    11.3807    25.2432 N.pl3   
 227 C227          32.4952    10.0524    25.1976 C.2     
 228 N228          31.2656     9.7129    24.9300 N.2     
 229 N229          33.4403     9.0824    25.4343 N.pl3   
 230 O230          31.5408    16.1317    22.3123 O.2     
 231 C231          33.7253    16.5004    21.4990 C.3     
 232 C232          34.7997    15.4201    21.6386 C.3     
 233 N233          33.0699    16.3717    20.1951 N.am    
 234 C234          32.4808    17.4432    19.6283 C.2     
 235 O235          32.4933    18.5140    20.1977 O.2     
 236 C236          31.8066    17.3109    18.2870 C.3     
 237 C237          35.8917    15.6485    20.5914 C.3     
 238 C238          36.6019    16.9734    20.8759 C.3     
 239 C239          36.9046    14.5034    20.6527 C.3     
 240 H240          24.6304    18.2055    25.1899 H       
 241 H241          24.2436    17.5987    23.5619 H       
 242 H242          26.5342    18.3030    22.8077 H       
 243 H243          26.9663    19.8988    25.2149 H       
 244 H244          24.1100    19.0907    21.9330 H       
 245 H245          23.5646    21.8415    22.7473 H       
 246 H246          21.5003    22.6461    21.6499 H       
 247 H247          20.0720    20.4606    20.2411 H       
 248 H248          17.8568    21.6469    19.2672 H       
 249 H249          18.4233    24.4028    18.4849 H       
 250 H250          18.3925    22.1115    16.4705 H       
 251 H251          18.3245    23.8371    16.0391 H       
 252 H252          16.5227    24.9630    16.6583 H       
 253 H253          14.0668    24.1695    18.0245 H       
 254 H254          12.9901    23.4306    15.8782 H       
 255 H255          14.5845    23.5100    15.0910 H       
 256 H256          12.1141    25.3376    16.5806 H       
 257 H257          13.1000    27.7622    15.2857 H       
 258 H258          10.2858    26.7692    15.9204 H       
 259 H259          10.6517    28.2549    15.0110 H       
 260 H260          11.6632    29.8883    16.1092 H       
 261 H261          11.8850    26.9189    13.3249 H       
 262 H262          11.5190    25.4333    14.2343 H       
 263 H263           9.0928    25.8443    13.9295 H       
 264 H264           9.4588    27.3300    13.0200 H       
 265 H265          10.8324    25.1819    11.8054 H       
 266 H266          24.5019    21.1937    19.9161 H       
 267 H267          23.6136    23.7687    21.2888 H       
 268 H268          24.3891    23.7028    19.6880 H       
 269 H269          22.8000    22.9412    19.9391 H       
 270 H270          26.2742    21.3401    21.5107 H       
 271 H271          18.9911    22.2832    22.4356 H       
 272 H272          17.9846    21.2137    21.4300 H       
 273 H273          18.7261    19.1632    24.3655 H       
 274 H274          20.4947    24.2078    17.1798 H       
 275 H275          20.5627    22.4822    17.6112 H       
 276 H276          20.5348    21.8798    15.2060 H       
 277 H277          20.4668    23.6053    14.7746 H       
 278 H278          22.6371    23.9760    15.9153 H       
 279 H279          22.7051    22.2505    16.3467 H       
 280 H280          22.5768    23.2796    13.5876 H       
 281 H281          23.9485    22.7159    14.3402 H       
 282 H282          12.5100    21.7336    17.5441 H       
 283 H283          16.3264    21.9198    15.6488 H       
 284 H284          16.8575    19.6673    16.4873 H       
 285 H285          13.0352    19.4826    18.3902 H       
 286 H286           9.8868    24.2150     9.8454 H       
 287 H287           8.2518    24.4154     9.5147 H       
 288 H288           6.9439    25.6396    10.9884 H       
 289 H289          12.4924    30.1826    18.8938 H       
 290 H290          11.1919    32.1211    16.9284 H       
 291 H291          11.7461    32.5523    18.5640 H       
 292 H292          13.5392    31.3349    16.4187 H       
 293 H293          10.6540    31.6124    20.2497 H       
 294 H294           9.1432    30.8775    20.2608 H       
 295 H295          14.4429    33.5907    16.1159 H       
 296 H296          12.6891    33.6191    15.8127 H       
 297 H297          13.3361    34.2321    17.3535 H       
 298 H298          15.7039    18.1829    18.8229 H       
 299 H299          14.2401    30.9400    18.7642 H       
 300 H300          15.3435    32.0750    17.9501 H       
 301 H301          14.1230    32.6854    19.0930 H       
 302 H302          25.2877    16.2155    26.7018 H       
 303 H303          26.6929    14.0721    26.3314 H       
 304 H304          27.5033    13.8998    23.9120 H       
 305 H305          29.6056    19.6333    25.6545 H       
 306 H306          30.5473    15.9620    27.1237 H       
 307 H307          31.0826    17.5271    27.8086 H       
 308 H308          28.2176    16.4870    27.4572 H       
 309 H309          28.9641    17.2371    28.9080 H       
 310 H310          28.9942    19.4248    27.9022 H       
 311 H311          27.4718    18.7668    27.2178 H       
 312 H312          32.5727    16.3525    25.9195 H       
 313 H313          30.6362    14.7897    25.5733 H       
 314 H314          31.0261    14.7460    23.8372 H       
 315 H315          34.0085    16.5799    24.1102 H       
 316 H316          33.2890    13.8814    24.3671 H       
 317 H317          32.8991    13.9251    26.1033 H       
 318 H318          31.0396    12.3287    25.7259 H       
 319 H319          31.4295    12.2850    23.9897 H       
 320 H320          33.7623    11.6334    25.4424 H       
 321 H321          31.0173     8.7757    24.8978 H       
 322 H322          34.3554     9.3351    25.6334 H       
 323 H323          33.1920     8.1452    25.4021 H       
 324 H324          34.1872    17.4845    21.5779 H       
 325 H325          35.2368    15.4690    22.6359 H       
 326 H326          34.3502    14.4388    21.4866 H       
 327 H327          33.0599    15.5153    19.7397 H       
 328 H328          30.7606    17.0406    18.4313 H       
 329 H329          31.8666    18.2603    17.7550 H       
 330 H330          32.3052    16.5360    17.7047 H       
 331 H331          35.4419    15.6830    19.5991 H       
 332 H332          37.0516    16.9389    21.8682 H       
 333 H333          37.3798    17.1362    20.1299 H       
 334 H334          35.8803    17.7892    20.8322 H       
 335 H335          36.4174    13.5716    20.3654 H       
 336 H336          37.7275    14.7093    19.9683 H       
 337 H337          37.2904    14.4136    21.6682 H       
@<TRIPOS>BOND
   1    1    2 1
   2    1   59 1
   3    1   65 1
   4    1   66 1
   5    2    3 1
   6    2   67 1
   7    2   68 1
   8    3    4 1
   9    3   69 1
  10    3   70 1
  11    4    5 1
  12    4   71 1
  13    4   72 1
  14    5    6 1
  15    5   73 1
  16    5   74 1
  17    6    7 1
  18    6   75 1
  19    6   76 1
  20    7    8 1
  21    7   77 1
  22    7   78 1
  23    8    9 1
  24    8   79 1
  25    8   80 1
  26    9   10 1
  27    9   81 1
  28    9   82 1
  29   10   11 1
  30   10   83 1
  31   10   84 1
  32   11   12 1
  33   11   85 1
  34   11   86 1
  35   12   13 1
  36   12   87 1
  37   12   88 1
  38   13   14 1
  39   13   89 1
  40   13   90 1
  41   14   15 1
  42   14   91 1
  43   14   92 1
  44   15   16 am
  45   15   17 2
  46   16   18 1
  47   16   60 1
  48   18   19 1
  49   18   93 1
  50   18   94 1
  51   19   20 am
  52   19   21 2
  53   20   22 1
  54   20   95 1
  55   22   23 1
  56   22   96 1
  57   22   97 1
  58   23   24 am
  59   23   25 2
  60   24   26 1
  61   24   98 1
  62   26   27 1
  63   26   30 1
  64   26   99 1
  65   27   28 2
  66   27   29 am
  67   29   33 1
  68   29  100 1
  69   30   31 1
  70   30  101 1
  71   30  102 1
  72   31   32 ar
  73   31   54 ar
  74   32   51 ar
  75   32  103 1
  76   33   34 1
  77   33   35 1
  78   33  104 1
  79   34   38 1
  80   34  105 1
  81   34  106 1
  82   35   36 2
  83   35   37 am
  84   37   41 1
  85   37  107 1
  86   38   39 1
  87   38  108 1
  88   38  109 1
  89   39   40 am
  90   39   56 2
  91   40  110 1
  92   40  111 1
  93   41   42 1
  94   41   43 1
  95   41  112 1
  96   42   61 1
  97   42  113 1
  98   42  114 1
  99   43   44 2
 100   43   45 am
 101   45   46 1
 102   45  115 1
 103   46   47 1
 104   46   48 1
 105   46  116 1
 106   47   49 1
 107   47  117 1
 108   47  118 1
 109   48  119 1
 110   48  120 1
 111   48  121 1
 112   49   50 1
 113   49  122 1
 114   49  123 1
 115   50   57 1
 116   50  124 1
 117   50  125 1
 118   51   52 ar
 119   51  126 1
 120   52   53 ar
 121   52   55 1
 122   53   54 ar
 123   53  127 1
 124   54  128 1
 125   55  129 1
 126   57   58 1
 127   57  130 1
 128   57  131 1
 129   58  132 1
 130   58  133 1
 131   59  134 1
 132   59  135 1
 133   59  136 1
 134   61   62 1
 135   61  137 1
 136   61  138 1
 137   62   63 1
 138   62  139 1
 139   62  140 1
 140   63   64 1
 141   63  141 1
 142   63  142 1
 143   64  143 1
 144   64  144 1
 145  145  206 1
 146  145  146 1
 147  145  240 1
 148  145  241 1
 149  146  147 1
 150  146  148 1
 151  146  242 1
 152  147  149 am
 153  147  150 2
 154  148  211 am
 155  148  243 1
 156  149  151 1
 157  149  244 1
 158  151  152 1
 159  151  178 1
 160  151  245 1
 161  152  153 am
 162  152  154 2
 163  153  155 1
 164  153  246 1
 165  155  156 1
 166  155  181 1
 167  155  247 1
 168  156  157 2
 169  156  158 am
 170  158  159 1
 171  158  248 1
 172  159  160 1
 173  159  161 1
 174  159  249 1
 175  160  185 1
 176  160  250 1
 177  160  251 1
 178  161  162 2
 179  161  163 am
 180  163  164 1
 181  163  252 1
 182  164  165 1
 183  164  166 1
 184  164  253 1
 185  165  189 1
 186  165  254 1
 187  165  255 1
 188  166  167 2
 189  166  168 am
 190  168  169 1
 191  168  256 1
 192  169  170 1
 193  169  171 1
 194  169  257 1
 195  170  174 1
 196  170  258 1
 197  170  259 1
 198  171  172 2
 199  171  173 am
 200  173  197 1
 201  173  260 1
 202  174  175 1
 203  174  261 1
 204  174  262 1
 205  175  176 1
 206  175  263 1
 207  175  264 1
 208  176  177 1
 209  176  265 1
 210  177  195 1
 211  177  196 2
 212  178  179 1
 213  178  180 1
 214  178  266 1
 215  179  267 1
 216  179  268 1
 217  179  269 1
 218  180  270 1
 219  181  182 1
 220  181  271 1
 221  181  272 1
 222  182  183 1
 223  182  184 2
 224  183  273 1
 225  185  186 1
 226  185  274 1
 227  185  275 1
 228  186  187 1
 229  186  276 1
 230  186  277 1
 231  187  188 1
 232  187  278 1
 233  187  279 1
 234  188  280 1
 235  188  281 1
 236  189  190 ar
 237  189  191 ar
 238  190  194 ar
 239  190  282 1
 240  191  192 ar
 241  191  283 1
 242  192  193 ar
 243  192  284 1
 244  193  194 ar
 245  193  204 1
 246  194  285 1
 247  195  286 1
 248  195  287 1
 249  196  288 1
 250  197  198 1
 251  197  199 1
 252  197  289 1
 253  198  201 am
 254  198  202 2
 255  199  200 1
 256  199  290 1
 257  199  291 1
 258  200  203 1
 259  200  205 1
 260  200  292 1
 261  201  293 1
 262  201  294 1
 263  203  295 1
 264  203  296 1
 265  203  297 1
 266  204  298 1
 267  205  299 1
 268  205  300 1
 269  205  301 1
 270  206  207 2
 271  206  210 1
 272  207  208 1
 273  207  302 1
 274  208  209 1
 275  208  303 1
 276  209  210 2
 277  209  304 1
 278  211  212 2
 279  211  213 1
 280  213  214 1
 281  213  217 1
 282  213  305 1
 283  214  215 1
 284  214  218 am
 285  215  216 1
 286  215  306 1
 287  215  307 1
 288  216  217 1
 289  216  308 1
 290  216  309 1
 291  217  310 1
 292  217  311 1
 293  218  219 2
 294  218  220 1
 295  220  221 1
 296  220  222 1
 297  220  312 1
 298  221  224 1
 299  221  313 1
 300  221  314 1
 301  222  223 am
 302  222  315 1
 303  223  230 2
 304  223  231 1
 305  224  225 1
 306  224  316 1
 307  224  317 1
 308  225  226 1
 309  225  318 1
 310  225  319 1
 311  226  227 1
 312  226  320 1
 313  227  228 2
 314  227  229 1
 315  228  321 1
 316  229  322 1
 317  229  323 1
 318  231  232 1
 319  231  233 1
 320  231  324 1
 321  232  237 1
 322  232  325 1
 323  232  326 1
 324  233  234 am
 325  233  327 1
 326  234  235 2
 327  234  236 1
 328  236  328 1
 329  236  329 1
 330  236  330 1
 331  237  238 1
 332  237  239 1
 333  237  331 1
 334  238  332 1
 335  238  333 1
 336  238  334 1
 337  239  335 1
 338  239  336 1
 339  239  337 1

#	End of record

