#	Name: ASD02560440
#	Creating user name:	WinNT
#	Creation time:	15. 06. 2019 20:25

#	Modifying user name:	WinNT
#	Modification time:	15. 06. 2019 20:25

#	Program:	/corina/corina34_cracker 3.40 0067  02.08.2006

@<TRIPOS>MOLECULE
ASD02560440
  40   43    0    0    0
SMALL
NO_CHARGES


@<TRIPOS>ATOM
   1 C1             0.1331     1.3905     1.0928 C.2     
   2 C2             0.1543    -0.0158     1.0826 C.2     
   3 C3             1.2834    -0.6777     0.7604 C.2     
   4 N4             2.4246     0.0067     0.4382 N.pl3   
   5 C5             2.4341     1.3829     0.4392 C.2     
   6 C6             1.2573     2.0855     0.7755 C.2     
   7 C7             3.6776    -0.4086     0.0815 C.2     
   8 C8             4.4299     0.7279    -0.1290 C.2     
   9 N9             3.6432     1.7961     0.0970 N.2     
  10 C10            5.8550     0.7661    -0.5324 C.ar    
  11 N11            4.1117    -1.7283    -0.0444 N.3     
  12 C12            2.9882    -2.6664     0.0817 C.3     
  13 C13            3.3170    -3.9831    -0.6436 C.3     
  14 C14            6.3157     1.7731    -1.3796 C.ar    
  15 C15            7.6454     1.8033    -1.7521 C.ar    
  16 C16            8.5193     0.8362    -1.2857 C.ar    
  17 C17            8.0669    -0.1653    -0.4453 C.ar    
  18 C18            6.7421    -0.2019    -0.0616 C.ar    
  19 C19            3.2801    -5.0956     0.4244 C.3     
  20 C20            2.3693    -4.5226     1.5385 C.3     
  21 C21            2.7630    -3.0248     1.5651 C.3     
  22 Cl22           8.2215     3.0557    -2.8073 Cl      
  23 H23           -0.7750     1.9166     1.3476 H       
  24 H24           -0.7389    -0.5682     1.3346 H       
  25 H25            1.2880    -1.7577     0.7566 H       
  26 H26            1.2500     3.1655     0.7808 H       
  27 H27            4.6018    -1.8662    -0.9155 H       
  28 H28            2.0844    -2.2246    -0.3378 H       
  29 H29            2.5722    -4.1807    -1.4146 H       
  30 H30            4.3101    -3.9260    -1.0892 H       
  31 H31            5.6343     2.5277    -1.7441 H       
  32 H32            9.5583     0.8634    -1.5794 H       
  33 H33            8.7532    -0.9172    -0.0849 H       
  34 H34            6.3906    -0.9841     0.5949 H       
  35 H35            2.8492    -6.0074     0.0107 H       
  36 H36            4.2812    -5.2869     0.8108 H       
  37 H37            1.3178    -4.6410     1.2769 H       
  38 H38            2.5860    -4.9961     2.4961 H       
  39 H39            3.6806    -2.8817     2.1358 H       
  40 H40            1.9548    -2.4253     1.9840 H       
@<TRIPOS>BOND
   1    1    2 1
   2    1    6 2
   3    1   23 1
   4    2    3 2
   5    2   24 1
   6    3    4 1
   7    3   25 1
   8    4    5 1
   9    4    7 1
  10    5    6 1
  11    5    9 2
  12    6   26 1
  13    7    8 2
  14    7   11 1
  15    8    9 1
  16    8   10 1
  17   10   14 ar
  18   10   18 ar
  19   11   12 1
  20   11   27 1
  21   12   13 1
  22   12   21 1
  23   12   28 1
  24   13   19 1
  25   13   29 1
  26   13   30 1
  27   14   15 ar
  28   14   31 1
  29   15   16 ar
  30   15   22 1
  31   16   17 ar
  32   16   32 1
  33   17   18 ar
  34   17   33 1
  35   18   34 1
  36   19   20 1
  37   19   35 1
  38   19   36 1
  39   20   21 1
  40   20   37 1
  41   20   38 1
  42   21   39 1
  43   21   40 1

#	End of record

