#	Name: ASD01760001
#	Creating user name:	WinNT
#	Creation time:	15. 06. 2019 19:23

#	Modifying user name:	WinNT
#	Modification time:	15. 06. 2019 19:23

#	Program:	/corina/corina34_cracker 3.40 0067  02.08.2006

@<TRIPOS>MOLECULE
ASD01760001
  21   21    0    0    0
SMALL
NO_CHARGES


@<TRIPOS>ATOM
   1 C1            -0.0148     1.3875     0.0038 C.ar    
   2 C2             0.0080    -0.0004    -0.0078 C.ar    
   3 C3             1.2200    -0.6733    -0.0288 C.ar    
   4 C4             2.4095     0.0399    -0.0376 C.ar    
   5 C5             2.3874     1.4265    -0.0259 C.ar    
   6 C6             1.1761     2.1007    -0.0054 C.ar    
   7 O7             1.2426    -2.0320    -0.0402 O.3     
   8 O8             3.5533     2.1246    -0.0346 O.3     
   9 N9            -1.2376     2.0673     0.0192 N.am    
  10 C10           -1.3555     3.2271     0.6955 C.2     
  11 C11           -2.6343     4.0202     0.6141 C.3     
  12 O12           -0.4323     3.6325     1.3697 O.2     
  13 Cl13          -2.4831     5.5091     1.6197 Cl      
  14 H14           -0.9181    -0.5559    -0.0003 H       
  15 H15            3.3533    -0.4848    -0.0532 H       
  16 H16            1.1590     3.1806     0.0033 H       
  17 H17            1.2379    -2.4180    -0.9268 H       
  18 H18            3.8799     2.3339    -0.9204 H       
  19 H19           -2.0006     1.7038    -0.4570 H       
  20 H20           -2.8233     4.2995    -0.4224 H       
  21 H21           -3.4617     3.4145     0.9839 H       
@<TRIPOS>BOND
   1    1    2 ar
   2    1    6 ar
   3    1    9 1
   4    2    3 ar
   5    2   14 1
   6    3    4 ar
   7    3    7 1
   8    4    5 ar
   9    4   15 1
  10    5    6 ar
  11    5    8 1
  12    6   16 1
  13    7   17 1
  14    8   18 1
  15    9   10 am
  16    9   19 1
  17   10   11 1
  18   10   12 2
  19   11   13 1
  20   11   20 1
  21   11   21 1

#	End of record

