#	Name: ASD01813483
#	Creating user name:	WinNT
#	Creation time:	15. 06. 2019 19:30

#	Modifying user name:	WinNT
#	Modification time:	15. 06. 2019 19:30

#	Program:	/corina/corina34_cracker 3.40 0067  02.08.2006

@<TRIPOS>MOLECULE
ASD01813483
  46   49    0    0    0
SMALL
NO_CHARGES


@<TRIPOS>ATOM
   1 C1            -0.0168     1.3834    -0.0465 C.ar    
   2 C2             0.0020    -0.0038    -0.0535 C.ar    
   3 C3             1.1976    -0.6920    -0.0502 C.ar    
   4 C4             2.4035     0.0084    -0.0395 C.ar    
   5 C5             2.3796     1.4130    -0.0324 C.ar    
   6 C6             1.1627     2.0947    -0.0359 C.ar    
   7 N7             3.6056    -0.6668    -0.0350 N.pl3   
   8 C8             4.7891    -0.0410    -0.0235 C.2     
   9 C9             4.8932     1.3356    -0.0152 C.2     
  10 C10            3.6619     2.1417    -0.0212 C.2     
  11 O11            3.7002     3.3596    -0.0146 O.2     
  12 C12            6.2115     1.9851    -0.0016 C.2     
  13 O13            6.3001     3.3303     0.0063 O.3     
  14 O14            7.2221     1.3094     0.0024 O.2     
  15 C15            3.5871    -2.1316    -0.0427 C.3     
  16 C16            3.4445    -2.6248    -1.4595 C.ar    
  17 N17            2.2428    -2.7288    -1.9929 N.ar    
  18 C18            2.0643    -3.1541    -3.2270 C.ar    
  19 C19            3.1535    -3.5124    -4.0180 C.ar    
  20 C20            4.4403    -3.4133    -3.4815 C.ar    
  21 C21            4.5764    -2.9558    -2.1823 C.ar    
  22 C22            2.9508    -3.9921    -5.4075 C.ar    
  23 F23            1.2003    -2.0430    -0.0567 F       
  24 C24            1.6643    -4.0880    -5.9334 C.ar    
  25 C25            1.4816    -4.5344    -7.2268 C.ar    
  26 C26            2.5728    -4.8862    -8.0002 C.ar    
  27 C27            3.8525    -4.7933    -7.4830 C.ar    
  28 C28            4.0471    -4.3429    -6.1932 C.ar    
  29 C29            0.0905    -4.6392    -7.7968 C.3     
  30 F30           -0.2529    -3.4313    -8.4136 F       
  31 F31            0.0493    -5.6723    -8.7393 F       
  32 F32           -0.8163    -4.9111    -6.7668 F       
  33 H33           -0.9608     1.9082    -0.0538 H       
  34 H34           -0.9293    -0.5507    -0.0614 H       
  35 H35            1.1454     3.1745    -0.0308 H       
  36 H36            5.6925    -0.6328    -0.0202 H       
  37 H37            7.1887     3.7117     0.0152 H       
  38 H38            4.5175    -2.5090     0.3815 H       
  39 H39            2.7459    -2.4875     0.5522 H       
  40 H40            1.0644    -3.2258    -3.6289 H       
  41 H41            5.3066    -3.6829    -4.0673 H       
  42 H42            5.5553    -2.8662    -1.7349 H       
  43 H43            0.8114    -3.8139    -5.3301 H       
  44 H44            2.4253    -5.2349    -9.0117 H       
  45 H45            4.7011    -5.0696    -8.0912 H       
  46 H46            5.0465    -4.2707    -5.7903 H       
@<TRIPOS>BOND
   1    1    2 ar
   2    1    6 ar
   3    1   33 1
   4    2    3 ar
   5    2   34 1
   6    3    4 ar
   7    3   23 1
   8    4    5 ar
   9    4    7 1
  10    5    6 ar
  11    5   10 1
  12    6   35 1
  13    7    8 1
  14    7   15 1
  15    8    9 2
  16    8   36 1
  17    9   10 1
  18    9   12 1
  19   10   11 2
  20   12   13 1
  21   12   14 2
  22   13   37 1
  23   15   16 1
  24   15   38 1
  25   15   39 1
  26   16   17 ar
  27   16   21 ar
  28   17   18 ar
  29   18   19 ar
  30   18   40 1
  31   19   20 ar
  32   19   22 1
  33   20   21 ar
  34   20   41 1
  35   21   42 1
  36   22   24 ar
  37   22   28 ar
  38   24   25 ar
  39   24   43 1
  40   25   26 ar
  41   25   29 1
  42   26   27 ar
  43   26   44 1
  44   27   28 ar
  45   27   45 1
  46   28   46 1
  47   29   30 1
  48   29   31 1
  49   29   32 1

#	End of record

