#	Name: ASD03080200
#	Creating user name:	WinNT
#	Creation time:	15. 06. 2019 20:26

#	Modifying user name:	WinNT
#	Modification time:	15. 06. 2019 20:26

#	Program:	/corina/corina34_cracker 3.40 0067  02.08.2006

@<TRIPOS>MOLECULE
ASD03080200
  35   37    0    0    0
SMALL
NO_CHARGES


@<TRIPOS>ATOM
   1 C1            -0.0962     1.4049    -0.2899 C.ar    
   2 C2            -0.1260     0.0287    -0.4742 C.ar    
   3 C3             0.9145    -0.5856    -1.1587 C.ar    
   4 C4             1.9564     0.2157    -1.6370 C.ar    
   5 C5             1.9096     1.5913    -1.4090 C.ar    
   6 N6             0.9019     2.1305    -0.7542 N.ar    
   7 C7             3.0893    -0.3856    -2.3719 C.2     
   8 C8             4.0713     0.3837    -2.8206 C.2     
   9 N9             6.8567     0.2952    -4.7677 N.3     
  10 C10            5.4003     0.3012    -4.9998 C.3     
  11 C11            5.2263    -0.2292    -3.5698 C.3     
  12 C12            6.5721     0.4697    -3.3312 C.3     
  13 O13           -1.1605    -0.7078     0.0098 O.3     
  14 C14           -1.0885    -2.0600    -0.1027 C.ar    
  15 C15           -0.4856    -2.8096     0.8974 C.ar    
  16 C16           -0.4137    -4.1841     0.7805 C.ar    
  17 C17           -0.9413    -4.8131    -0.3321 C.ar    
  18 C18           -1.5426    -4.0686    -1.3301 C.ar    
  19 C19           -1.6227    -2.6943    -1.2153 C.ar    
  20 H20           -0.9050     1.8885     0.2377 H       
  21 H21            0.9192    -1.6539    -1.3173 H       
  22 H22            2.7082     2.2207    -1.7730 H       
  23 H23            3.1171    -1.4515    -2.5433 H       
  24 H24            4.0435     1.4496    -2.6492 H       
  25 H25            7.2483    -0.6165    -4.9506 H       
  26 H26            4.9880     1.2996    -5.1458 H       
  27 H27            5.0799    -0.4041    -5.7666 H       
  28 H28            5.2637    -1.3156    -3.4891 H       
  29 H29            7.2448    -0.0929    -2.6838 H       
  30 H30            6.4725     1.5130    -3.0318 H       
  31 H31           -0.0727    -2.3187     1.7663 H       
  32 H32            0.0554    -4.7679     1.5586 H       
  33 H33           -0.8834    -5.8878    -0.4219 H       
  34 H34           -1.9539    -4.5623    -2.1981 H       
  35 H35           -2.0967    -2.1136    -1.9928 H       
@<TRIPOS>BOND
   1    1    2 ar
   2    1    6 ar
   3    1   20 1
   4    2    3 ar
   5    2   13 1
   6    3    4 ar
   7    3   21 1
   8    4    5 ar
   9    4    7 1
  10    5    6 ar
  11    5   22 1
  12    7    8 2
  13    7   23 1
  14    8   11 1
  15    8   24 1
  16    9   10 1
  17    9   12 1
  18    9   25 1
  19   10   11 1
  20   10   26 1
  21   10   27 1
  22   11   12 1
  23   11   28 1
  24   12   29 1
  25   12   30 1
  26   13   14 1
  27   14   15 ar
  28   14   19 ar
  29   15   16 ar
  30   15   31 1
  31   16   17 ar
  32   16   32 1
  33   17   18 ar
  34   17   33 1
  35   18   19 ar
  36   18   34 1
  37   19   35 1

#	End of record

