#	Name: ASD01913927
#	Creating user name:	WinNT
#	Creation time:	15. 06. 2019 20:02

#	Modifying user name:	WinNT
#	Modification time:	15. 06. 2019 20:02

#	Program:	/corina/corina34_cracker 3.40 0067  02.08.2006

@<TRIPOS>MOLECULE
ASD01913927
  39   40    0    0    0
SMALL
NO_CHARGES


@<TRIPOS>ATOM
   1 C1            -0.0897     1.4790     0.0019 C.2     
   2 C2            -0.1970     0.0053    -0.0097 C.ar    
   3 C3             0.2471    -0.7221    -1.1170 C.ar    
   4 C4             0.1439    -2.0994    -1.1203 C.ar    
   5 C5            -0.3979    -2.7576    -0.0311 C.ar    
   6 C6            -0.8398    -2.0426     1.0681 C.ar    
   7 C7            -0.7372    -0.6671     1.0878 C.ar    
   8 O8             0.9339     2.0169    -0.3731 O.2     
   9 N9            -1.1287     2.2270     0.4231 N.am    
  10 C10           -2.4017     1.5870     0.7634 C.3     
  11 C11           -0.9850     3.6802     0.5406 C.3     
  12 C12           -1.3772     4.3402    -0.7828 C.3     
  13 C13           -1.2328     5.8003    -0.6648 C.1     
  14 C14           -1.1176     6.9649    -0.5706 C.1     
  15 C15           -0.9772     8.3853    -0.4557 C.ar    
  16 C16           -1.2807     9.2015    -1.5461 C.ar    
  17 C17           -1.1399    10.5719    -1.4193 C.ar    
  18 C18           -0.7000    11.0837    -0.2062 C.ar    
  19 C19           -0.4170    10.2173     0.8335 C.ar    
  20 N20           -0.5643     8.9162     0.6894 N.ar    
  21 C21            0.0612    10.7695     2.1516 C.3     
  22 F22           -1.0395    11.0307     2.9747 F       
  23 Cl23           0.9262     0.1030    -2.4851 Cl      
  24 H24            0.4865    -2.6635    -1.9751 H       
  25 H25           -0.4767    -3.8347    -0.0387 H       
  26 H26           -1.2621    -2.5632     1.9149 H       
  27 H27           -1.0786    -0.1113     1.9485 H       
  28 H28           -2.3769     1.2585     1.8025 H       
  29 H29           -3.2148     2.3000     0.6271 H       
  30 H30           -2.5606     0.7261     0.1140 H       
  31 H31           -1.6345     4.0465     1.3357 H       
  32 H32            0.0508     3.9251     0.7758 H       
  33 H33           -0.7277     3.9740    -1.5779 H       
  34 H34           -2.4129     4.0953    -1.0180 H       
  35 H35           -1.6203     8.7695    -2.4759 H       
  36 H36           -1.3668    11.2289    -2.2459 H       
  37 H37           -0.5796    12.1491    -0.0759 H       
  38 H38            0.7123    10.0417     2.6357 H       
  39 H39            0.6136    11.6933     1.9796 H       
@<TRIPOS>BOND
   1    1    2 1
   2    1    8 2
   3    1    9 am
   4    2    3 ar
   5    2    7 ar
   6    3    4 ar
   7    3   23 1
   8    4    5 ar
   9    4   24 1
  10    5    6 ar
  11    5   25 1
  12    6    7 ar
  13    6   26 1
  14    7   27 1
  15    9   10 1
  16    9   11 1
  17   10   28 1
  18   10   29 1
  19   10   30 1
  20   11   12 1
  21   11   31 1
  22   11   32 1
  23   12   13 1
  24   12   33 1
  25   12   34 1
  26   13   14 3
  27   14   15 1
  28   15   16 ar
  29   15   20 ar
  30   16   17 ar
  31   16   35 1
  32   17   18 ar
  33   17   36 1
  34   18   19 ar
  35   18   37 1
  36   19   20 ar
  37   19   21 1
  38   21   22 1
  39   21   38 1
  40   21   39 1

#	End of record

