#	Name: ASD08178304
#	Creating user name:	WinNT
#	Creation time:	15. 06. 2019 21:18

#	Modifying user name:	WinNT
#	Modification time:	15. 06. 2019 21:18

#	Program:	/corina/corina34_cracker 3.40 0067  02.08.2006

@<TRIPOS>MOLECULE
ASD08178304
  58   61    0    0    0
SMALL
NO_CHARGES


@<TRIPOS>ATOM
   1 N1            -0.0168     1.3902     0.0097 N.am    
   2 C2            -0.2173     0.0103     0.0231 C.ar    
   3 C3             0.8683    -0.8557    -0.0926 C.ar    
   4 N4            -1.4399    -0.4832     0.1513 N.ar    
   5 N5            -1.6667    -1.7463     0.1686 N.ar    
   6 C6            -0.7002    -2.6368     0.0602 C.ar    
   7 C7             0.6159    -2.2190    -0.0733 C.ar    
   8 C8            -1.0247    -4.1082     0.0874 C.3     
   9 C9            -1.8115    -4.4335     1.3586 C.3     
  10 C10           -2.1410    -5.9273     1.3862 C.3     
  11 C11           -2.9278    -6.2527     2.6574 C.3     
  12 C12           -3.2523    -7.7241     2.6845 C.2     
  13 N13           -2.5213    -8.6581     3.2049 N.2     
  14 N14           -2.9690    -9.8359     3.1257 N.2     
  15 C15           -4.1130   -10.0077     2.5350 C.2     
  16 S16           -4.6995    -8.4828     2.0200 S.3     
  17 N17           -4.7575   -11.2270     2.3553 N.am    
  18 C18           -4.1929   -12.3617     2.8139 C.2     
  19 C19           -4.8913   -13.6828     2.6192 C.3     
  20 O20           -3.1229   -12.3195     3.3832 O.2     
  21 C21           -4.0568   -14.7853     3.2184 C.2     
  22 C22           -1.0750     2.2250     0.0167 C.2     
  23 C23           -0.8601     3.7130     0.1198 C.3     
  24 O24           -2.2000     1.7786    -0.0599 O.2     
  25 C25           -2.1935     4.4152     0.1067 C.ar    
  26 C26           -2.8565     4.6619     1.2943 C.ar    
  27 C27           -4.0796     5.3059     1.2822 C.ar    
  28 C28           -4.6395     5.7036     0.0825 C.ar    
  29 C29           -3.9760     5.4577    -1.1051 C.ar    
  30 C30           -2.7509     4.8175    -1.0926 C.ar    
  31 C31           -4.1432   -15.2175     4.4774 C.2     
  32 C32           -3.2731   -16.2437     4.8028 C.2     
  33 C33           -2.4802   -16.6450     3.8081 C.2     
  34 S34           -2.8251   -15.7040     2.3627 S.3     
  35 H35            0.8842     1.7494    -0.0006 H       
  36 H36            1.8745    -0.4770    -0.1944 H       
  37 H37            1.4199    -2.9345    -0.1636 H       
  38 H38           -1.6240    -4.3643    -0.7864 H       
  39 H39           -0.0997    -4.6845     0.0751 H       
  40 H40           -1.2123    -4.1774     2.2323 H       
  41 H41           -2.7366    -3.8571     1.3708 H       
  42 H42           -2.7402    -6.1835     0.5124 H       
  43 H43           -1.2159    -6.5037     1.3739 H       
  44 H44           -2.3286    -5.9966     3.5311 H       
  45 H45           -3.8529    -5.6763     2.6696 H       
  46 H46           -5.6133   -11.2607     1.9000 H       
  47 H47           -5.8640   -13.6554     3.1104 H       
  48 H48           -5.0274   -13.8683     1.5537 H       
  49 H49           -0.3385     3.9413     1.0493 H       
  50 H50           -0.2620     4.0532    -0.7255 H       
  51 H51           -2.4191     4.3512     2.2316 H       
  52 H52           -4.5979     5.4981     2.2100 H       
  53 H53           -5.5954     6.2062     0.0730 H       
  54 H54           -4.4136     5.7681    -2.0424 H       
  55 H55           -2.2326     4.6254    -2.0204 H       
  56 H56           -4.8390   -14.7982     5.1890 H       
  57 H57           -3.2387   -16.6859     5.7875 H       
  58 H58           -1.7418   -17.4300     3.8785 H       
@<TRIPOS>BOND
   1    1    2 1
   2    1   22 am
   3    1   35 1
   4    2    3 ar
   5    2    4 ar
   6    3    7 ar
   7    3   36 1
   8    4    5 ar
   9    5    6 ar
  10    6    7 ar
  11    6    8 1
  12    7   37 1
  13    8    9 1
  14    8   38 1
  15    8   39 1
  16    9   10 1
  17    9   40 1
  18    9   41 1
  19   10   11 1
  20   10   42 1
  21   10   43 1
  22   11   12 1
  23   11   44 1
  24   11   45 1
  25   12   13 2
  26   12   16 1
  27   13   14 1
  28   14   15 2
  29   15   16 1
  30   15   17 1
  31   17   18 am
  32   17   46 1
  33   18   19 1
  34   18   20 2
  35   19   21 1
  36   19   47 1
  37   19   48 1
  38   21   31 2
  39   21   34 1
  40   22   23 1
  41   22   24 2
  42   23   25 1
  43   23   49 1
  44   23   50 1
  45   25   26 ar
  46   25   30 ar
  47   26   27 ar
  48   26   51 1
  49   27   28 ar
  50   27   52 1
  51   28   29 ar
  52   28   53 1
  53   29   30 ar
  54   29   54 1
  55   30   55 1
  56   31   32 1
  57   31   56 1
  58   32   33 2
  59   32   57 1
  60   33   34 1
  61   33   58 1

#	End of record

