#	Name: ASD01830010
#	Creating user name:	WinNT
#	Creation time:	15. 06. 2019 19:36

#	Modifying user name:	WinNT
#	Modification time:	15. 06. 2019 19:36

#	Program:	/corina/corina34_cracker 3.40 0067  02.08.2006

@<TRIPOS>MOLECULE
ASD01830010
  54   60    0    0    0
SMALL
NO_CHARGES


@<TRIPOS>ATOM
   1 N1             0.5069     1.9290    -0.4617 N.am    
   2 C2             0.6491     0.6054    -0.6768 C.2     
   3 C3            -0.4986    -0.3302    -0.4255 C.3     
   4 C4            -1.5360     0.1899     0.5677 C.3     
   5 C5            -1.2968     1.6292     0.9408 C.3     
   6 C6            -0.8752     2.4639    -0.2564 C.3     
   7 C7            -2.3062     2.3070     1.8204 C.3     
   8 C8            -1.6444     3.5865     2.3637 C.3     
   9 C9            -1.4309     4.5237     1.1936 C.3     
  10 C10           -0.6948     3.9430     0.0074 C.3     
  11 C11            1.4199     2.9317    -0.2413 C.ar    
  12 C12            0.7943     4.1454     0.0670 C.ar    
  13 C13            1.5116     5.2907     0.3552 C.ar    
  14 C14            2.8973     5.1998     0.3136 C.ar    
  15 C15            3.5276     4.0140    -0.0039 C.ar    
  16 C16            2.8178     2.8598    -0.2868 C.ar    
  17 O17            1.7082     0.1688    -1.0752 O.2     
  18 N18           -2.7058     5.0611     0.7026 N.4     
  19 C19           -3.5225     2.7034     1.0267 C.2     
  20 C20           -3.7623     4.0818     0.5288 C.3     
  21 C21           -1.2127     4.7767    -1.1947 C.3     
  22 O22           -2.8399     0.0082     0.0049 O.3     
  23 C23           -4.3288     1.7357     0.6552 C.2     
  24 C24           -3.9281     0.3045     0.8850 C.3     
  25 H25           -0.3999     1.5953     1.5593 H       
  26 H26           -2.5837     1.6505     2.6451 H       
  27 H27           -1.4765    -0.4140     1.4732 H       
  28 H28           -1.5142     2.2757    -1.1191 H       
  29 H29           -0.8499     5.3722     1.5548 H       
  30 C30           -2.4065     5.5839    -0.6605 C.3     
  31 C31           -3.1650     6.1443     1.5823 C.3     
  32 C32           -4.4144     6.7930     0.9830 C.3     
  33 H33           -0.9975    -0.5273    -1.3743 H       
  34 H34           -0.1001    -1.2716    -0.0472 H       
  35 H35           -2.2969     4.0564     3.0997 H       
  36 H36           -0.6858     3.3415     2.8210 H       
  37 H37            1.0158     6.2179     0.6021 H       
  38 H38            3.4925     6.0738     0.5336 H       
  39 H39            4.6068     3.9855    -0.0323 H       
  40 H40            3.3233     1.9380    -0.5342 H       
  41 H41           -4.6543     4.4639     1.0251 H       
  42 H42           -3.9827     4.0165    -0.5367 H       
  43 H43           -0.4323     5.4497    -1.5498 H       
  44 H44           -1.5354     4.1160    -1.9995 H       
  45 H45           -5.2743     1.9663     0.1869 H       
  46 H46           -4.7690    -0.3539     0.6669 H       
  47 H47           -3.6126     0.1711     1.9198 H       
  48 H48           -3.2705     5.4458    -1.3105 H       
  49 H49           -2.1466     6.6411    -0.6052 H       
  50 H50           -3.4027     5.7379     2.5654 H       
  51 H51           -2.3781     6.8922     1.6789 H       
  52 H52           -4.2091     7.0972    -0.0434 H       
  53 H53           -5.2358     6.0765     0.9922 H       
  54 H54           -4.6884     7.6674     1.5732 H       
@<TRIPOS>BOND
   1    1    2 am
   2    1   11 1
   3    1    6 1
   4    2    3 1
   5    2   17 2
   6    3    4 1
   7    3   33 1
   8    3   34 1
   9    4    5 1
  10    4   22 1
  11    4   27 1
  12    5    6 1
  13    5   25 1
  14    5    7 1
  15    6   10 1
  16    6   28 1
  17    7    8 1
  18    7   19 1
  19    7   26 1
  20    8    9 1
  21    8   35 1
  22    8   36 1
  23    9   10 1
  24    9   18 1
  25    9   29 1
  26   10   21 1
  27   10   12 1
  28   11   12 ar
  29   11   16 ar
  30   12   13 ar
  31   13   14 ar
  32   13   37 1
  33   14   15 ar
  34   14   38 1
  35   15   16 ar
  36   15   39 1
  37   16   40 1
  38   18   20 1
  39   18   30 1
  40   18   31 1
  41   19   23 2
  42   19   20 1
  43   20   41 1
  44   20   42 1
  45   21   30 1
  46   21   43 1
  47   21   44 1
  48   22   24 1
  49   23   24 1
  50   23   45 1
  51   24   46 1
  52   24   47 1
  53   30   48 1
  54   30   49 1
  55   31   32 1
  56   31   50 1
  57   31   51 1
  58   32   52 1
  59   32   53 1
  60   32   54 1

#	End of record

