#	Name: ASD01911327
#	Creating user name:	WinNT
#	Creation time:	15. 06. 2019 19:57

#	Modifying user name:	WinNT
#	Modification time:	15. 06. 2019 19:57

#	Program:	/corina/corina34_cracker 3.40 0067  02.08.2006

@<TRIPOS>MOLECULE
ASD01911327
  38   40    0    0    0
SMALL
NO_CHARGES


@<TRIPOS>ATOM
   1 C1            -0.5977     2.4657     0.6139 C.ar    
   2 C2            -0.2173     1.1321     0.5564 C.ar    
   3 C3            -1.2020     0.1675     0.3905 C.ar    
   4 C4            -2.5331     0.5617     0.2917 C.ar    
   5 N5            -2.8491     1.8509     0.3502 N.ar    
   6 C6            -1.9358     2.7877     0.5108 C.ar    
   7 O7            -0.8382    -1.1412     0.3220 O.3     
   8 C8            -1.8852    -2.1062     0.4735 C.3     
   9 C9            -3.0739    -1.6489    -0.3819 C.3     
  10 N10           -3.5601    -0.3657     0.1374 N.3     
  11 C11            0.4362     3.5474     0.7930 C.3     
  12 O12            0.8948     3.9847    -0.4879 O.3     
  13 C13            1.8365     4.9643    -0.5046 C.ar    
  14 C14            2.3266     5.4365    -1.7135 C.ar    
  15 C15            3.2839     6.4324    -1.7278 C.ar    
  16 C16            3.7536     6.9585    -0.5386 C.ar    
  17 C17            3.2672     6.4893     0.6676 C.ar    
  18 C18            2.3053     5.4979     0.6872 C.ar    
  19 C19           -4.6326     0.1727    -0.7098 C.3     
  20 C20           -4.0705     0.5081    -2.0927 C.3     
  21 H21            0.8222     0.8509     0.6385 H       
  22 H22           -2.2383     3.8236     0.5528 H       
  23 H23           -1.5394    -3.0822     0.1329 H       
  24 H24           -2.1845    -2.1646     1.5200 H       
  25 H25           -2.7543    -1.5272    -1.4168 H       
  26 H26           -3.8705    -2.3909    -0.3274 H       
  27 H27           -0.0065     4.3883     1.3269 H       
  28 H28            1.2768     3.1554     1.3655 H       
  29 H29            1.9602     5.0256    -2.6427 H       
  30 H30            3.6659     6.8001    -2.6687 H       
  31 H31            4.5021     7.7370    -0.5519 H       
  32 H32            3.6362     6.9014     1.5952 H       
  33 H33            1.9256     5.1317     1.6296 H       
  34 H34           -5.4241    -0.5700    -0.8097 H       
  35 H35           -5.0374     1.0760    -0.2533 H       
  36 H36           -3.2143     1.1741    -1.9851 H       
  37 H37           -3.7566    -0.4098    -2.5897 H       
  38 H38           -4.8400     0.9990    -2.6884 H       
@<TRIPOS>BOND
   1    1    2 ar
   2    1   11 1
   3    1    6 ar
   4    2    3 ar
   5    2   21 1
   6    3    4 ar
   7    3    7 1
   8    4    5 ar
   9    4   10 1
  10    5    6 ar
  11    6   22 1
  12    7    8 1
  13    8    9 1
  14    8   23 1
  15    8   24 1
  16    9   10 1
  17    9   25 1
  18    9   26 1
  19   10   19 1
  20   11   12 1
  21   11   27 1
  22   11   28 1
  23   12   13 1
  24   13   14 ar
  25   13   18 ar
  26   14   15 ar
  27   14   29 1
  28   15   16 ar
  29   15   30 1
  30   16   17 ar
  31   16   31 1
  32   17   18 ar
  33   17   32 1
  34   18   33 1
  35   19   20 1
  36   19   34 1
  37   19   35 1
  38   20   36 1
  39   20   37 1
  40   20   38 1

#	End of record

