#	Name: ASD02440007
#	Creating user name:	WinNT
#	Creation time:	15. 06. 2019 20:21

#	Modifying user name:	WinNT
#	Modification time:	15. 06. 2019 20:21

#	Program:	/corina/corina34_cracker 3.40 0067  02.08.2006

@<TRIPOS>MOLECULE
ASD02440007
  35   37    0    0    0
SMALL
NO_CHARGES


@<TRIPOS>ATOM
   1 Cl1            2.0110     3.6174     2.1768 Cl      
   2 C2             0.8626     3.3243     0.9083 C.2     
   3 C3             1.1458     2.4119    -0.0518 C.2     
   4 N4             2.3430     1.7261    -0.0110 N.pl3   
   5 C5             2.3466     0.3406     0.0863 C.ar    
   6 C6             3.5444    -0.3612    -0.0337 C.ar    
   7 C7             3.5522    -1.7235     0.0609 C.ar    
   8 C8             2.3539    -2.4154     0.2795 C.ar    
   9 C9             1.1518    -1.7060     0.4002 C.ar    
  10 C10            1.1533    -0.3434     0.3095 C.ar    
  11 C11            2.3576    -3.8799     0.3815 C.2     
  12 O12            3.3993    -4.4926     0.2764 O.2     
  13 C13            1.0673    -4.6222     0.6167 C.3     
  14 C14            0.1828     2.1426    -1.1451 C.2     
  15 O15            0.4446     1.3222    -2.0014 O.2     
  16 C16           -1.0991     2.8783    -1.1870 C.ar    
  17 C17           -1.3848     3.8240    -0.1866 C.ar    
  18 C18           -0.4013     4.0621     0.8941 C.2     
  19 O19           -0.6391     4.8782     1.7642 O.2     
  20 C20           -2.5864     4.5196    -0.2191 C.ar    
  21 C21           -3.4959     4.2771    -1.2371 C.ar    
  22 C22           -3.2154     3.3479    -2.2202 C.ar    
  23 C23           -2.0207     2.6457    -2.2016 C.ar    
  24 H24            3.1817     2.2118    -0.0504 H       
  25 H25            4.4678     0.1730    -0.2023 H       
  26 H26            4.4809    -2.2667    -0.0330 H       
  27 H27            0.2259    -2.2357     0.5688 H       
  28 H28            0.2272     0.2043     0.4027 H       
  29 H29            0.6121    -4.8721    -0.3416 H       
  30 H30            1.2709    -5.5377     1.1721 H       
  31 H31            0.3858    -3.9935     1.1897 H       
  32 H32           -2.8119     5.2470     0.5467 H       
  33 H33           -4.4303     4.8182    -1.2615 H       
  34 H34           -3.9317     3.1673    -3.0080 H       
  35 H35           -1.8061     1.9208    -2.9728 H       
@<TRIPOS>BOND
   1    1    2 1
   2    2    3 2
   3    2   18 1
   4    3    4 1
   5    3   14 1
   6    4    5 1
   7    4   24 1
   8    5    6 ar
   9    5   10 ar
  10    6    7 ar
  11    6   25 1
  12    7    8 ar
  13    7   26 1
  14    8    9 ar
  15    8   11 1
  16    9   10 ar
  17    9   27 1
  18   10   28 1
  19   11   12 2
  20   11   13 1
  21   13   29 1
  22   13   30 1
  23   13   31 1
  24   14   15 2
  25   14   16 1
  26   16   17 ar
  27   16   23 ar
  28   17   18 1
  29   17   20 ar
  30   18   19 2
  31   20   21 ar
  32   20   32 1
  33   21   22 ar
  34   21   33 1
  35   22   23 ar
  36   22   34 1
  37   23   35 1

#	End of record

