#	Name: ASD06710007
#	Creating user name:	WinNT
#	Creation time:	15. 06. 2019 21:08

#	Modifying user name:	WinNT
#	Modification time:	15. 06. 2019 21:08

#	Program:	/corina/corina34_cracker 3.40 0067  02.08.2006

@<TRIPOS>MOLECULE
ASD06710007
  46   48    0    0    0
SMALL
NO_CHARGES


@<TRIPOS>ATOM
   1 N1            -0.3367     1.4426    -0.5647 N.ar    
   2 C2            -0.4291     0.1346    -0.4025 C.ar    
   3 N3             0.6108    -0.6211    -0.1252 N.ar    
   4 C4             1.8238    -0.0866     0.0059 C.ar    
   5 C5             1.9745     1.3044    -0.1578 C.ar    
   6 C6             0.8298     2.0690    -0.4539 C.ar    
   7 N7             3.0636    -0.5818     0.2814 N.pl3   
   8 N8             3.9706     0.4854     0.2886 N.2     
   9 C9             3.3424     1.5972     0.0321 C.2     
  10 C10            3.9698     2.9650    -0.0484 C.3     
  11 N11            0.9173     3.4367    -0.6246 N.pl3   
  12 C12            3.3909    -1.9884     0.5279 C.3     
  13 C13            3.0167    -2.8218    -0.6994 C.3     
  14 C14            4.8908    -2.1232     0.7979 C.3     
  15 C15            2.6070    -2.4890     1.7427 C.3     
  16 C16            4.0287     3.5725     1.3294 C.ar    
  17 C17            3.0628     4.4773     1.7276 C.ar    
  18 C18            3.1169     5.0347     2.9917 C.ar    
  19 C19            4.1367     4.6868     3.8573 C.ar    
  20 C20            5.1024     3.7810     3.4593 C.ar    
  21 C21            5.0459     3.2205     2.1972 C.ar    
  22 C22            6.0985     2.2332     1.7633 C.3     
  23 C23            2.0642     6.0220     3.4255 C.3     
  24 H24           -1.3977    -0.3327    -0.5013 H       
  25 H25            4.9791     2.8787    -0.4509 H       
  26 H26            3.3717     3.6012    -0.7008 H       
  27 H27            1.7651     3.8889    -0.4912 H       
  28 H28            0.1310     3.9452    -0.8779 H       
  29 H29            3.5752    -2.4651    -1.5648 H       
  30 H30            3.2602    -3.8683    -0.5160 H       
  31 H31            1.9481    -2.7257    -0.8918 H       
  32 H32            5.1574    -1.5294     1.6723 H       
  33 H33            5.1344    -3.1697     0.9814 H       
  34 H34            5.4493    -1.7665    -0.0675 H       
  35 H35            1.5384    -2.3930     1.5503 H       
  36 H36            2.8505    -3.5355     1.9261 H       
  37 H37            2.8736    -1.8953     2.6170 H       
  38 H38            2.2659     4.7491     1.0512 H       
  39 H39            4.1793     5.1227     4.8445 H       
  40 H40            5.8995     3.5094     4.1356 H       
  41 H41            5.7407     1.2191     1.9409 H       
  42 H42            6.3046     2.3651     0.7011 H       
  43 H43            7.0117     2.4015     2.3342 H       
  44 H44            1.2373     5.4888     3.8947 H       
  45 H45            2.4960     6.7233     4.1395 H       
  46 H46            1.6978     6.5679     2.5562 H       
@<TRIPOS>BOND
   1    1    2 ar
   2    1    6 ar
   3    2    3 ar
   4    2   24 1
   5    3    4 ar
   6    4    5 ar
   7    4    7 1
   8    5    6 ar
   9    5    9 1
  10    6   11 1
  11    7    8 1
  12    7   12 1
  13    8    9 2
  14    9   10 1
  15   10   16 1
  16   10   25 1
  17   10   26 1
  18   11   27 1
  19   11   28 1
  20   12   13 1
  21   12   14 1
  22   12   15 1
  23   13   29 1
  24   13   30 1
  25   13   31 1
  26   14   32 1
  27   14   33 1
  28   14   34 1
  29   15   35 1
  30   15   36 1
  31   15   37 1
  32   16   17 ar
  33   16   21 ar
  34   17   18 ar
  35   17   38 1
  36   18   19 ar
  37   18   23 1
  38   19   20 ar
  39   19   39 1
  40   20   21 ar
  41   20   40 1
  42   21   22 1
  43   22   41 1
  44   22   42 1
  45   22   43 1
  46   23   44 1
  47   23   45 1
  48   23   46 1

#	End of record

