#	Name: ASD04880385
#	Creating user name:	WinNT
#	Creation time:	15. 06. 2019 20:53

#	Modifying user name:	WinNT
#	Modification time:	15. 06. 2019 20:53

#	Program:	/corina/corina34_cracker 3.40 0067  02.08.2006

@<TRIPOS>MOLECULE
ASD04880385
  41   43    0    0    0
SMALL
NO_CHARGES


@<TRIPOS>ATOM
   1 C1            -0.3543     1.6668    -0.2884 C.ar    
   2 C2            -0.4220     0.2899    -0.3992 C.ar    
   3 C3             0.7350    -0.4615    -0.4266 C.ar    
   4 C4             1.9769     0.1700    -0.3422 C.ar    
   5 C5             2.0406     1.5601    -0.2304 C.ar    
   6 C6             0.8750     2.3014    -0.2041 C.ar    
   7 C7             3.2195    -0.6297    -0.3706 C.2     
   8 O8             3.1616    -1.8440    -0.3450 O.2     
   9 N9             4.4167    -0.0131    -0.4248 N.am    
  10 C10            5.7267    -0.6786    -0.3435 C.3     
  11 N11            4.6162     1.3579    -0.5729 N.2     
  12 C12            5.8553     1.7098    -0.5976 C.2     
  13 C13            6.7311     0.4854    -0.4568 C.3     
  14 F14            0.9336     3.6468    -0.0960 F       
  15 C15            6.3442     3.0935    -0.7446 C.ar    
  16 C16            5.4373     4.1472    -0.8706 C.ar    
  17 C17            5.9048     5.4447    -1.0084 C.ar    
  18 C18            7.2729     5.6932    -1.0208 C.ar    
  19 C19            8.1711     4.6500    -0.8965 C.ar    
  20 C20            7.7165     3.3550    -0.7525 C.ar    
  21 N21            5.0016     6.5028    -1.1354 N.am    
  22 S22            4.7741     7.2251    -2.6081 S.o2    
  23 O23            6.0882     7.5251    -3.0580 O.2     
  24 C24            4.0291     5.9302    -3.6371 C.3     
  25 O25            3.8343     8.2592    -2.3498 O.2     
  26 H26           -1.2629     2.2503    -0.2719 H       
  27 H27           -1.3830    -0.1986    -0.4641 H       
  28 H28            0.6797    -1.5366    -0.5129 H       
  29 H29            2.9984     2.0546    -0.1644 H       
  30 H30            5.8385    -1.1900     0.6125 H       
  31 H31            5.8541    -1.3770    -1.1706 H       
  32 H32            7.3415     0.5534     0.4437 H       
  33 H33            7.3604     0.3620    -1.3381 H       
  34 H34            4.3751     3.9521    -0.8611 H       
  35 H35            7.6350     6.7050    -1.1283 H       
  36 H36            9.2324     4.8496    -0.9076 H       
  37 H37            8.4217     2.5427    -0.6557 H       
  38 H38            4.5077     6.8145    -0.3609 H       
  39 H39            3.0473     5.6713    -3.2409 H       
  40 H40            3.9241     6.2939    -4.6592 H       
  41 H41            4.6684     5.0474    -3.6295 H       
@<TRIPOS>BOND
   1    1    2 ar
   2    1    6 ar
   3    1   26 1
   4    2    3 ar
   5    2   27 1
   6    3    4 ar
   7    3   28 1
   8    4    5 ar
   9    4    7 1
  10    5    6 ar
  11    5   29 1
  12    6   14 1
  13    7    8 2
  14    7    9 am
  15    9   10 1
  16    9   11 1
  17   10   13 1
  18   10   30 1
  19   10   31 1
  20   11   12 2
  21   12   13 1
  22   12   15 1
  23   13   32 1
  24   13   33 1
  25   15   16 ar
  26   15   20 ar
  27   16   17 ar
  28   16   34 1
  29   17   18 ar
  30   17   21 1
  31   18   19 ar
  32   18   35 1
  33   19   20 ar
  34   19   36 1
  35   20   37 1
  36   21   22 am
  37   21   38 1
  38   22   23 2
  39   22   24 1
  40   22   25 2
  41   24   39 1
  42   24   40 1
  43   24   41 1

#	End of record

