#	Name: ASD01870046
#	Creating user name:	WinNT
#	Creation time:	15. 06. 2019 19:38

#	Modifying user name:	WinNT
#	Modification time:	15. 06. 2019 19:38

#	Program:	/corina/corina34_cracker 3.40 0067  02.08.2006

@<TRIPOS>MOLECULE
ASD01870046
  44   48    0    0    0
SMALL
NO_CHARGES


@<TRIPOS>ATOM
   1 C1             0.0117     1.2649    -0.3707 C.ar    
   2 C2            -0.0277     0.1139     0.3927 C.ar    
   3 N3             1.0646    -0.3886     0.9235 N.ar    
   4 C4             2.2672     0.1761     0.7591 C.ar    
   5 C5             2.3942     1.3369     0.0040 C.ar    
   6 C6             1.2287     1.8991    -0.5791 C.ar    
   7 S7             3.8350    -0.3263     1.3750 S.3     
   8 C8             4.6626     1.0233     0.6184 C.2     
   9 C9             3.7755     1.8203    -0.0736 C.2     
  10 C10            6.0379     1.3783     0.6251 C.2     
  11 N11            6.4263     2.4813    -0.0452 N.am    
  12 C12            5.5079     3.2305    -0.7107 C.2     
  13 N13            4.2488     2.9178    -0.7251 N.2     
  14 N14            1.3042     3.0562    -1.3413 N.3     
  15 C15            7.7758     2.8557    -0.0555 C.ar    
  16 O16            6.8522     0.6979     1.2265 O.2     
  17 C17            0.8284     2.8168    -2.7103 C.3     
  18 C18            0.5587     4.1527    -0.7090 C.3     
  19 C19            8.6217     2.3820    -1.0497 C.ar    
  20 C20            9.9519     2.7534    -1.0573 C.ar    
  21 C21           10.4418     3.5957    -0.0761 C.ar    
  22 C22            9.6021     4.0687     0.9156 C.ar    
  23 C23            8.2695     3.7059     0.9252 C.ar    
  24 C24           11.8939     3.9985    -0.0872 C.3     
  25 C25           12.2123     5.4907    -0.2014 C.3     
  26 C26           12.4243     4.7627     1.1275 C.3     
  27 H27           -0.8935     1.6641    -0.8040 H       
  28 H28           -0.9732    -0.3816     0.5565 H       
  29 H29            5.8356     4.1115    -1.2425 H       
  30 H30           -0.2093     2.4845    -2.6814 H       
  31 H31            0.8984     3.7398    -3.2859 H       
  32 H32            1.4430     2.0485    -3.1795 H       
  33 H33            0.9772     4.3555     0.2768 H       
  34 H34            0.6345     5.0473    -1.3270 H       
  35 H35           -0.4888     3.8687    -0.6076 H       
  36 H36            8.2399     1.7236    -1.8159 H       
  37 H37           10.6103     2.3853    -1.8303 H       
  38 H38            9.9878     4.7261     1.6808 H       
  39 H39            7.6141     4.0760     1.6997 H       
  40 H40           12.5718     3.3003    -0.5782 H       
  41 H41           13.0997     5.7741    -0.7672 H       
  42 H42           11.3714     6.1810    -0.2685 H       
  43 H43           11.7230     4.9741     1.9347 H       
  44 H44           13.4514     4.5673     1.4360 H       
@<TRIPOS>BOND
   1    1    2 ar
   2    1    6 ar
   3    1   27 1
   4    2    3 ar
   5    2   28 1
   6    3    4 ar
   7    4    5 ar
   8    4    7 1
   9    5    6 ar
  10    5    9 1
  11    6   14 1
  12    7    8 1
  13    8    9 2
  14    8   10 1
  15    9   13 1
  16   10   11 am
  17   10   16 2
  18   11   12 1
  19   11   15 1
  20   12   13 2
  21   12   29 1
  22   14   17 1
  23   14   18 1
  24   15   19 ar
  25   15   23 ar
  26   17   30 1
  27   17   31 1
  28   17   32 1
  29   18   33 1
  30   18   34 1
  31   18   35 1
  32   19   20 ar
  33   19   36 1
  34   20   21 ar
  35   20   37 1
  36   21   22 ar
  37   21   24 1
  38   22   23 ar
  39   22   38 1
  40   23   39 1
  41   24   25 1
  42   24   26 1
  43   24   40 1
  44   25   26 1
  45   25   41 1
  46   25   42 1
  47   26   43 1
  48   26   44 1

#	End of record

