#	Name: ASD01411099
#	Creating user name:	WinNT
#	Creation time:	15. 06. 2019 19:19

#	Modifying user name:	WinNT
#	Modification time:	15. 06. 2019 19:19

#	Program:	/corina/corina34_cracker 3.40 0067  02.08.2006

@<TRIPOS>MOLECULE
ASD01411099
  46   48    0    0    0
SMALL
NO_CHARGES


@<TRIPOS>ATOM
   1 C1            -0.0209     1.7282    -0.0774 C.3     
   2 C2            -0.1099     0.1969    -0.1462 C.3     
   3 O3             1.3527     2.1237    -0.0271 O.3     
   4 C4             0.8030    -0.3671     0.9136 C.2     
   5 C5             2.0099     1.8206     1.2098 C.3     
   6 C6             1.7636     0.3651     1.5303 C.2     
   7 C7             0.8594    -1.6957     1.4668 C.ar    
   8 C8             1.4402     2.6986     2.3258 C.3     
   9 C9             3.5126     2.0726     1.0711 C.3     
  10 N10            2.4242    -0.4119     2.4375 N.pl3   
  11 C11            0.1177    -2.8714     1.2201 C.ar    
  12 C12            1.9024    -1.6755     2.4291 C.ar    
  13 C13            0.4670    -4.0002     1.9706 C.ar    
  14 C14            2.2219    -2.8187     3.1569 C.ar    
  15 C15            1.4838    -3.9650     2.9030 C.ar    
  16 C16            2.1512     2.3762     3.6416 C.3     
  17 C17            1.6574     4.1723     1.9765 C.3     
  18 C18            1.4983     3.1625     4.7802 C.3     
  19 C19            4.0707     1.1944    -0.0190 C.2     
  20 O20            3.3414     0.4440    -0.6231 O.2     
  21 O21            5.3781     1.2458    -0.3189 O.3     
  22 C22           -0.9375    -2.9071     0.2526 C.1     
  23 N23           -1.7746    -2.9354    -0.5148 N.1     
  24 C24            3.3269    -2.8105     4.1815 C.3     
  25 H25           -0.4911     2.1596    -0.9611 H       
  26 H26           -0.5340     2.0823     0.8167 H       
  27 H27           -1.1351    -0.1220     0.0421 H       
  28 H28            0.2096    -0.1475    -1.1298 H       
  29 H29            0.3730     2.5039     2.4323 H       
  30 H30            3.6838     3.1189     0.8182 H       
  31 H31            4.0084     1.8409     2.0138 H       
  32 H32            3.1538    -0.1129     3.0024 H       
  33 H33           -0.0735    -4.9225     1.8162 H       
  34 H34            1.7134    -4.8639     3.4558 H       
  35 H35            2.0719     1.3083     3.8454 H       
  36 H36            3.2023     2.6542     3.5642 H       
  37 H37            2.7248     4.3929     1.9795 H       
  38 H38            1.2471     4.3755     0.9873 H       
  39 H39            1.1549     4.7983     2.7139 H       
  40 H40            1.5776     4.2304     4.5764 H       
  41 H41            0.4472     2.8845     4.8576 H       
  42 H42            2.0048     2.9328     5.7176 H       
  43 H43            5.6896     0.6638    -1.0256 H       
  44 H44            2.9188    -2.5352     5.1539 H       
  45 H45            3.7731    -3.8031     4.2425 H       
  46 H46            4.0882    -2.0873     3.8890 H       
@<TRIPOS>BOND
   1    1    2 1
   2    1    3 1
   3    1   25 1
   4    1   26 1
   5    2    4 1
   6    2   27 1
   7    2   28 1
   8    3    5 1
   9    4    6 2
  10    4    7 1
  11    5    8 1
  12    5    9 1
  13    5    6 1
  14    6   10 1
  15    7   11 ar
  16    7   12 ar
  17    8   16 1
  18    8   17 1
  19    8   29 1
  20    9   19 1
  21    9   30 1
  22    9   31 1
  23   10   12 1
  24   10   32 1
  25   11   13 ar
  26   11   22 1
  27   12   14 ar
  28   13   15 ar
  29   13   33 1
  30   14   15 ar
  31   14   24 1
  32   15   34 1
  33   16   18 1
  34   16   35 1
  35   16   36 1
  36   17   37 1
  37   17   38 1
  38   17   39 1
  39   18   40 1
  40   18   41 1
  41   18   42 1
  42   19   20 2
  43   19   21 1
  44   21   43 1
  45   22   23 3
  46   24   44 1
  47   24   45 1
  48   24   46 1

#	End of record

