#	Name: ASD01811070
#	Creating user name:	WinNT
#	Creation time:	15. 06. 2019 19:26

#	Modifying user name:	WinNT
#	Modification time:	15. 06. 2019 19:26

#	Program:	/corina/corina34_cracker 3.40 0067  02.08.2006

@<TRIPOS>MOLECULE
ASD01811070
  44   47    0    0    0
SMALL
NO_CHARGES


@<TRIPOS>ATOM
   1 C1            -0.0168     1.3905     0.0097 C.ar    
   2 C2             0.0021    -0.0041     0.0020 C.ar    
   3 C3            -1.2631    -0.8069    -0.0058 C.3     
   4 C4            -2.4668    -0.0179     0.3941 C.2     
   5 C5            -2.5150     1.3235     0.4103 C.2     
   6 C6            -1.3136     2.1046     0.0382 C.2     
   7 C7            -1.4847    -1.3602    -1.4149 C.3     
   8 C8            -2.6855    -2.2707    -1.4140 C.ar    
   9 C9            -3.9429    -1.7548    -1.6686 C.ar    
  10 C10           -5.0453    -2.5870    -1.6688 C.ar    
  11 C11           -4.8900    -3.9426    -1.4132 C.ar    
  12 C12           -3.6264    -4.4577    -1.1580 C.ar    
  13 C13           -2.5271    -3.6215    -1.1643 C.ar    
  14 N14           -6.0074    -4.7899    -1.4124 N.pl3   
  15 O15           -1.3890     3.2867    -0.2334 O.2     
  16 C16           -3.7597     2.0162     0.7967 C.2     
  17 O17           -4.7439     1.3723     1.1011 O.2     
  18 O18           -3.8044     3.3626     0.8119 O.3     
  19 C19            1.1909     2.0872     0.0019 C.ar    
  20 C20            2.3707     1.3652    -0.0068 C.ar    
  21 N21            2.3518     0.0469    -0.0071 N.ar    
  22 C22            1.2301    -0.6443    -0.0029 C.ar    
  23 C23           -6.0058    -6.1407    -1.1777 C.2     
  24 C24           -7.2837    -6.5544    -1.2723 C.2     
  25 N25           -8.0486    -5.4900    -1.5566 N.2     
  26 C26           -7.2966    -4.4264    -1.6381 C.2     
  27 C27           -7.7702    -7.9692    -1.0909 C.3     
  28 H28           -1.1498    -1.6448     0.6822 H       
  29 H29           -3.3533    -0.5602     0.6880 H       
  30 H30           -1.6549    -0.5351    -2.1066 H       
  31 H31           -0.6039    -1.9208    -1.7279 H       
  32 H32           -4.0632    -0.7000    -1.8670 H       
  33 H33           -6.0272    -2.1834    -1.8674 H       
  34 H34           -3.5026    -5.5118    -0.9585 H       
  35 H35           -1.5437    -4.0217    -0.9662 H       
  36 H36           -4.6415     3.7712     1.0717 H       
  37 H37            1.2049     3.1671     0.0023 H       
  38 H38            3.3166     1.8864    -0.0138 H       
  39 H39            1.2688    -1.7236    -0.0033 H       
  40 H40           -5.1448    -6.7550    -0.9593 H       
  41 H41           -7.6408    -3.4260    -1.8552 H       
  42 H42           -8.0181    -8.1365    -0.0427 H       
  43 H43           -8.6569    -8.1299    -1.7041 H       
  44 H44           -6.9875    -8.6643    -1.3946 H       
@<TRIPOS>BOND
   1    1    2 ar
   2    1   19 ar
   3    1    6 1
   4    2    3 1
   5    2   22 ar
   6    3    4 1
   7    3    7 1
   8    3   28 1
   9    4    5 2
  10    4   29 1
  11    5    6 1
  12    5   16 1
  13    6   15 2
  14    7    8 1
  15    7   30 1
  16    7   31 1
  17    8    9 ar
  18    8   13 ar
  19    9   10 ar
  20    9   32 1
  21   10   11 ar
  22   10   33 1
  23   11   12 ar
  24   11   14 1
  25   12   13 ar
  26   12   34 1
  27   13   35 1
  28   14   23 1
  29   14   26 1
  30   16   17 2
  31   16   18 1
  32   18   36 1
  33   19   20 ar
  34   19   37 1
  35   20   21 ar
  36   20   38 1
  37   21   22 ar
  38   22   39 1
  39   23   24 2
  40   23   40 1
  41   24   25 1
  42   24   27 1
  43   25   26 2
  44   26   41 1
  45   27   42 1
  46   27   43 1
  47   27   44 1

#	End of record

