#	Name: ASD03470002
#	Creating user name:	WinNT
#	Creation time:	15. 06. 2019 20:42

#	Modifying user name:	WinNT
#	Modification time:	15. 06. 2019 20:42

#	Program:	/corina/corina34_cracker 3.40 0067  02.08.2006

@<TRIPOS>MOLECULE
ASD03470002
 132  132    0    0    0
SMALL
NO_CHARGES


@<TRIPOS>ATOM
   1 N1            -1.9877     2.2878     0.4508 N.am    
   2 C2            -0.8995     3.2387     0.1398 C.3     
   3 C3            -1.4971     4.6082    -0.0671 C.2     
   4 O4            -2.6967     4.7270    -0.2052 O.2     
   5 C5             0.0847     3.2806     1.3125 C.3     
   6 N6            -0.6815     5.6992    -0.0997 N.am    
   7 C7            -1.3271     7.0260    -0.1672 C.3     
   8 C8            -1.0903     7.7434     1.1405 C.2     
   9 O9            -0.1166     8.4584     1.2774 O.2     
  10 C10           -0.7054     7.8308    -1.3104 C.3     
  11 C11           -1.0256     7.1531    -2.6442 C.3     
  12 C12           -0.4039     7.9578    -3.7874 C.3     
  13 N13           -0.7105     7.3089    -5.0645 N.pl3   
  14 C14           -0.2531     7.8551    -6.2404 C.2     
  15 N15            0.4534     8.9503    -6.2189 N.2     
  16 N16           -0.5408     7.2461    -7.4389 N.pl3   
  17 N17           -1.9894     7.5708     2.1513 N.am    
  18 C18           -1.6574     8.1869     3.4512 C.3     
  19 C19           -2.9047     8.2436     4.2957 C.2     
  20 O20           -3.9915     8.0631     3.7776 O.2     
  21 C21           -0.6011     7.3344     4.1592 C.3     
  22 C22            0.6989     7.3596     3.3528 C.3     
  23 C23            1.7545     6.5076     4.0603 C.3     
  24 C24            3.0545     6.5328     3.2539 C.3     
  25 N25            4.0681     5.7148     3.9332 N.3     
  26 N26           -2.8116     8.4962     5.6287 N.am    
  27 C27           -4.0492     8.3836     6.4266 C.3     
  28 C28           -3.9154     7.2090     7.3670 C.2     
  29 O29           -3.4515     7.3622     8.4785 O.2     
  30 C30           -4.2490     9.6637     7.2415 C.3     
  31 C31           -5.4593     9.4982     8.1626 C.3     
  32 C32           -3.0001     9.9324     8.0835 C.3     
  33 C33           -6.7270     9.3539     7.3182 C.3     
  34 N34           -4.3265     5.9813     6.9356 N.am    
  35 C35           -4.0571     4.8361     7.8325 C.3     
  36 C36           -4.9132     3.6714     7.4012 C.2     
  37 O37           -5.8290     3.8520     6.6232 O.2     
  38 C38           -2.5805     4.4465     7.7268 C.3     
  39 C39           -2.2563     4.0891     6.2991 C.2     
  40 O40           -1.0412     3.6125     5.9859 O.3     
  41 O41           -3.0901     4.2316     5.4364 O.2     
  42 N42           -4.6581     2.4280     7.8885 N.am    
  43 C43           -5.4300     1.3036     7.3189 C.3     
  44 C44           -4.4910     0.4237     6.5275 C.2     
  45 O45           -3.8967    -0.4850     7.0716 O.2     
  46 C46           -6.0521     0.4864     8.4536 C.3     
  47 C47           -7.0610     1.3320     9.1871 C.2     
  48 N48           -7.7391     0.8175    10.2320 N.am    
  49 O49           -7.2628     2.4755     8.8370 O.2     
  50 N50           -4.3284     0.6781     5.1975 N.am    
  51 C51           -3.3004    -0.1144     4.4903 C.3     
  52 C52           -3.5169     0.0256     3.0051 C.2     
  53 O53           -4.5655     0.4870     2.5917 O.2     
  54 C54           -1.9114     0.4208     4.8498 C.3     
  55 C55           -0.8744    -0.6894     4.6682 C.3     
  56 C56            0.4668    -0.2340     5.2467 C.3     
  57 C57           -1.3433    -1.9496     5.3983 C.3     
  58 N58           -2.5491    -0.3608     2.1357 N.am    
  59 C59           -2.7530    -0.0503     0.7068 C.3     
  60 C60           -1.7109     0.9597     0.2852 C.2     
  61 O61           -0.6552     0.5904    -0.1850 O.2     
  62 C62           -2.5969    -1.3227    -0.1255 C.3     
  63 C63           -3.6944    -2.2926     0.2289 C.2     
  64 O64           -4.5172    -1.9956     1.0624 O.2     
  65 O65           -3.7580    -3.4865    -0.3813 O.3     
  66 H66           -2.8558     2.5884     0.7614 H       
  67 H67           -0.3821     2.9255    -0.7675 H       
  68 H68            0.5026     2.2865     1.4719 H       
  69 H69            0.8890     3.9809     1.0871 H       
  70 H70           -0.4369     3.6041     2.2133 H       
  71 H71            0.2856     5.6108    -0.0841 H       
  72 H72           -2.3992     6.9119    -0.3246 H       
  73 H73           -1.1151     8.8409    -1.3085 H       
  74 H74            0.3754     7.8769    -1.1765 H       
  75 H75           -0.6158     6.1430    -2.6461 H       
  76 H76           -2.1063     7.1070    -2.7782 H       
  77 H77           -0.8136     8.9679    -3.7855 H       
  78 H78            0.6769     8.0039    -3.6535 H       
  79 H79           -1.2362     6.4939    -5.0805 H       
  80 H80            0.6563     9.3799    -5.3732 H       
  81 H81           -1.0665     6.4311    -7.4549 H       
  82 H82           -0.2181     7.6315    -8.2685 H       
  83 H83           -2.8091     7.0636     2.0228 H       
  84 H84           -1.2757     9.1963     3.2984 H       
  85 H85           -0.4183     7.7361     5.1558 H       
  86 H86           -0.9580     6.3077     4.2411 H       
  87 H87            0.5161     6.9579     2.3561 H       
  88 H88            1.0558     8.3863     3.2708 H       
  89 H89            1.9373     6.9094     5.0569 H       
  90 H90            1.3976     5.4810     4.1422 H       
  91 H91            2.8717     6.1311     2.2573 H       
  92 H92            3.4114     7.5595     3.1720 H       
  93 H93            3.7349     4.7737     4.0791 H       
  94 H94            4.9367     5.7154     3.4199 H       
  95 H95           -1.9695     8.7464     6.0453 H       
  96 H96           -4.9036     8.2172     5.7705 H       
  97 H97           -4.4187    10.5018     6.5656 H       
  98 H98           -5.3290     8.6075     8.7774 H       
  99 H99           -5.5489    10.3736     8.8058 H       
 100 H100          -2.1153     9.8754     7.4496 H       
 101 H101          -3.0670    10.9264     8.5257 H       
 102 H102          -2.9284     9.1866     8.8753 H       
 103 H103          -7.5893     9.2360     7.9744 H       
 104 H104          -6.8574    10.2445     6.7034 H       
 105 H105          -6.6375     8.4784     6.6750 H       
 106 H106          -4.7687     5.8621     6.0784 H       
 107 H107          -4.2976     5.1044     8.8605 H       
 108 H108          -1.9599     5.2856     8.0412 H       
 109 H109          -2.3842     3.5884     8.3697 H       
 110 H110          -0.8801     3.3973     5.0570 H       
 111 H111          -4.0002     2.2782     8.5889 H       
 112 H112          -6.2072     1.6812     6.6561 H       
 113 H113          -6.5468    -0.3923     8.0397 H       
 114 H114          -5.2707     0.1713     9.1452 H       
 115 H115          -7.5777    -0.0970    10.5120 H       
 116 H116          -8.3885     1.3619    10.7041 H       
 117 H117          -4.8533     1.3544     4.7360 H       
 118 H118          -3.3788    -1.1632     4.7737 H       
 119 H119          -1.6649     1.2585     4.1974 H       
 120 H120          -1.9081     0.7550     5.8873 H       
 121 H121          -0.7571    -0.9070     3.6066 H       
 122 H122           0.3495    -0.0164     6.3083 H       
 123 H123           1.2056    -1.0249     5.1174 H       
 124 H124           0.8008     0.6638     4.7266 H       
 125 H125          -1.5975    -1.6994     6.4283 H       
 126 H126          -2.2212    -2.3553     4.8957 H       
 127 H127          -0.5451    -2.6918     5.3912 H       
 128 H128          -1.7483    -0.8231     2.4343 H       
 129 H129          -3.7425     0.3833     0.5580 H       
 130 H130          -2.6599    -1.0740    -1.1849 H       
 131 H131          -1.6286    -1.7774     0.0839 H       
 132 H132          -4.4798    -4.0749    -0.1207 H       
@<TRIPOS>BOND
   1    1   60 am
   2    1    2 1
   3    1   66 1
   4    2    5 1
   5    2    3 1
   6    2   67 1
   7    3    6 am
   8    3    4 2
   9    5   68 1
  10    5   69 1
  11    5   70 1
  12    6    7 1
  13    6   71 1
  14    7    8 1
  15    7   10 1
  16    7   72 1
  17    8   17 am
  18    8    9 2
  19   10   11 1
  20   10   73 1
  21   10   74 1
  22   11   12 1
  23   11   75 1
  24   11   76 1
  25   12   13 1
  26   12   77 1
  27   12   78 1
  28   13   14 1
  29   13   79 1
  30   14   16 1
  31   14   15 2
  32   15   80 1
  33   16   81 1
  34   16   82 1
  35   17   18 1
  36   17   83 1
  37   18   21 1
  38   18   19 1
  39   18   84 1
  40   19   20 2
  41   19   26 am
  42   21   22 1
  43   21   85 1
  44   21   86 1
  45   22   23 1
  46   22   87 1
  47   22   88 1
  48   23   24 1
  49   23   89 1
  50   23   90 1
  51   24   25 1
  52   24   91 1
  53   24   92 1
  54   25   93 1
  55   25   94 1
  56   26   27 1
  57   26   95 1
  58   27   28 1
  59   27   30 1
  60   27   96 1
  61   28   29 2
  62   28   34 am
  63   30   32 1
  64   30   31 1
  65   30   97 1
  66   31   33 1
  67   31   98 1
  68   31   99 1
  69   32  100 1
  70   32  101 1
  71   32  102 1
  72   33  103 1
  73   33  104 1
  74   33  105 1
  75   34   35 1
  76   34  106 1
  77   35   36 1
  78   35   38 1
  79   35  107 1
  80   36   37 2
  81   36   42 am
  82   38   39 1
  83   38  108 1
  84   38  109 1
  85   39   40 1
  86   39   41 2
  87   40  110 1
  88   42   43 1
  89   42  111 1
  90   43   44 1
  91   43   46 1
  92   43  112 1
  93   44   50 am
  94   44   45 2
  95   46   47 1
  96   46  113 1
  97   46  114 1
  98   47   49 2
  99   47   48 am
 100   48  115 1
 101   48  116 1
 102   50   51 1
 103   50  117 1
 104   51   54 1
 105   51   52 1
 106   51  118 1
 107   52   58 am
 108   52   53 2
 109   54   55 1
 110   54  119 1
 111   54  120 1
 112   55   56 1
 113   55   57 1
 114   55  121 1
 115   56  122 1
 116   56  123 1
 117   56  124 1
 118   57  125 1
 119   57  126 1
 120   57  127 1
 121   58   59 1
 122   58  128 1
 123   59   62 1
 124   59   60 1
 125   59  129 1
 126   60   61 2
 127   62   63 1
 128   62  130 1
 129   62  131 1
 130   63   64 2
 131   63   65 1
 132   65  132 1

#	End of record

