#	Name: ASD03540040
#	Creating user name:	WinNT
#	Creation time:	15. 06. 2019 20:42

#	Modifying user name:	WinNT
#	Modification time:	15. 06. 2019 20:42

#	Program:	/corina/corina34_cracker 3.40 0067  02.08.2006

@<TRIPOS>MOLECULE
ASD03540040
  51   53    0    0    0
SMALL
NO_CHARGES


@<TRIPOS>ATOM
   1 Na1            0.0000     0.0000     0.0000 Du      
   2 C2             9.5082    17.0819     5.5568 C.2     
   3 C3             9.5282    15.6067     5.5487 C.ar    
   4 C4            10.7457    14.9213     5.5334 C.ar    
   5 C5            10.7567    13.5422     5.5258 C.ar    
   6 C6             9.5658    12.8373     5.5334 C.ar    
   7 C7             8.3563    13.5095     5.5485 C.ar    
   8 C8             8.3299    14.8884     5.5620 C.ar    
   9 O9            10.5589    17.7077     5.5501 O.co2   
  10 O10            8.4410    17.6789     5.5651 O.co2   
  11 C11            9.5862    11.3305     5.5245 C.3     
  12 C12            8.4472    10.5968     7.5295 C.2     
  13 N13            8.3985    10.1351     8.8100 N.am    
  14 C14            9.5928     9.9155     9.4532 C.2     
  15 C15           10.7961    10.1522     8.8288 C.2     
  16 C16           10.7906    10.6269     7.5106 C.2     
  17 N17            9.6063    10.8343     6.9028 N.am    
  18 S18            9.1826     9.3293    11.0709 S.3     
  19 C19            7.2839     9.8588     9.5471 C.2     
  20 C20            7.4323     9.4091    10.8009 C.2     
  21 O21           11.8377    10.8486     6.9249 O.2     
  22 O22            7.4054    10.7948     6.9352 O.2     
  23 C23           12.0962     9.9061     9.5501 C.3     
  24 C24            6.3693     9.0567    11.7507 C.2     
  25 N25            6.6866     8.6165    12.9844 N.am    
  26 O26            5.2020     9.1622    11.4240 O.2     
  27 C27            5.6261     8.2649    13.9320 C.3     
  28 C28            6.2425     7.8053    15.2281 C.ar    
  29 C29            6.5135     8.7216    16.2272 C.ar    
  30 C30            7.0784     8.3012    17.4163 C.ar    
  31 C31            7.3730     6.9618    17.6068 C.ar    
  32 C32            7.1011     6.0450    16.6054 C.ar    
  33 C33            6.5314     6.4670    15.4192 C.ar    
  34 F34            7.9256     6.5497    18.7687 F       
  35 H35           11.6758    15.4701     5.5271 H       
  36 H36           11.6970    13.0110     5.5136 H       
  37 H37            7.4307    12.9529     5.5543 H       
  38 H38            7.3853    15.4116     5.5787 H       
  39 H39            8.6963    10.9580     5.0172 H       
  40 H40           10.4760    10.9823     5.0000 H       
  41 H41            6.2989    10.0001     9.1272 H       
  42 H42           12.4195     8.8798     9.3764 H       
  43 H43           12.8548    10.5941     9.1767 H       
  44 H44           11.9547    10.0666    10.6189 H       
  45 H45            7.6172     8.5324    13.2449 H       
  46 H46            5.0000     9.1378    14.1169 H       
  47 H47            5.0172     7.4629    13.5147 H       
  48 H48            6.2840     9.7663    16.0782 H       
  49 H49            7.2903     9.0172    18.1966 H       
  50 H50            7.3305     5.0000    16.7529 H       
  51 H51            6.3154     5.7515    14.6395 H       
@<TRIPOS>BOND
   1    2    3 1
   2    2    9 ar
   3    2   10 ar
   4    3    4 ar
   5    3    8 ar
   6    4    5 ar
   7    4   35 1
   8    5    6 ar
   9    5   36 1
  10    6    7 ar
  11    6   11 1
  12    7    8 ar
  13    7   37 1
  14    8   38 1
  15   11   17 1
  16   11   39 1
  17   11   40 1
  18   12   13 am
  19   12   17 am
  20   12   22 2
  21   13   14 1
  22   13   19 1
  23   14   15 2
  24   14   18 1
  25   15   16 1
  26   15   23 1
  27   16   17 am
  28   16   21 2
  29   18   20 1
  30   19   20 2
  31   19   41 1
  32   20   24 1
  33   23   42 1
  34   23   43 1
  35   23   44 1
  36   24   25 am
  37   24   26 2
  38   25   27 1
  39   25   45 1
  40   27   28 1
  41   27   46 1
  42   27   47 1
  43   28   29 ar
  44   28   33 ar
  45   29   30 ar
  46   29   48 1
  47   30   31 ar
  48   30   49 1
  49   31   32 ar
  50   31   34 1
  51   32   33 ar
  52   32   50 1
  53   33   51 1

#	End of record

