#	Name: ASD03090346
#	Creating user name:	WinNT
#	Creation time:	15. 06. 2019 20:28

#	Modifying user name:	WinNT
#	Modification time:	15. 06. 2019 20:28

#	Program:	/corina/corina34_cracker 3.40 0067  02.08.2006

@<TRIPOS>MOLECULE
ASD03090346
  48   51    0    0    0
SMALL
NO_CHARGES


@<TRIPOS>ATOM
   1 N1             0.0442     1.4155     0.3181 N.ar    
   2 C2             0.1953     0.4399    -0.5565 C.ar    
   3 C3             1.3868    -0.2557    -0.6440 C.ar    
   4 C4             2.4391     0.0909     0.2139 C.ar    
   5 C5             2.2318     1.1321     1.1246 C.ar    
   6 C6             1.0096     1.7724     1.1430 C.ar    
   7 C7             3.7329    -0.6247     0.1583 C.2     
   8 N8             5.7379    -3.5099     0.0568 N.pl3   
   9 C9             4.9025    -4.6248     0.1923 C.ar    
  10 C10            5.2354    -5.8213    -0.4282 C.ar    
  11 C11            4.4083    -6.9240    -0.2937 C.ar    
  12 C12            3.2437    -6.8300     0.4643 C.ar    
  13 C13            2.9147    -5.6341     1.0816 C.ar    
  14 C14            3.7435    -4.5359     0.9521 C.ar    
  15 N15            3.8954    -1.9326     0.1409 N.2     
  16 C16            5.1960    -2.2237     0.0882 C.2     
  17 N17            5.8848    -1.1055     0.0713 N.2     
  18 N18            4.9567    -0.0525     0.1106 N.pl3   
  19 C19            5.2556     1.3817     0.1089 C.3     
  20 C20            5.1925     1.9063    -1.3024 C.2     
  21 N21            5.4342     3.2092    -1.5484 N.am    
  22 O22            4.5041    -8.1917    -0.7911 O.3     
  23 C23            3.6029    -8.9857     0.0027 C.3     
  24 O24            2.6097    -8.0400     0.4415 O.3     
  25 F25            3.0161    -9.9892    -0.7756 F       
  26 F26            4.2719    -9.5403     1.0991 F       
  27 C27           -0.9458     0.0785    -1.4721 C.3     
  28 O28            4.9243     1.1561    -2.2168 O.2     
  29 C29            5.3729     3.7192    -2.9204 C.3     
  30 C30            5.6852     5.2170    -2.9222 C.3     
  31 F31            1.5342    -1.2542    -1.5421 F       
  32 H32            3.0168     1.4304     1.8038 H       
  33 H33            0.8410     2.5774     1.8429 H       
  34 H34            6.6933    -3.6310    -0.0590 H       
  35 H35            6.1388    -5.8921    -1.0158 H       
  36 H36            2.0116    -5.5614     1.6693 H       
  37 H37            3.4848    -3.6050     1.4346 H       
  38 H38            4.5246     1.9060     0.7245 H       
  39 H39            6.2547     1.5451     0.5130 H       
  40 H40            5.6488     3.8092    -0.8171 H       
  41 H41           -0.8779     0.6669    -2.3871 H       
  42 H42           -0.8929    -0.9822    -1.7174 H       
  43 H43           -1.8921     0.2894    -0.9739 H       
  44 H44            6.1040     3.1950    -3.5359 H       
  45 H45            4.3739     3.5559    -3.3245 H       
  46 H46            6.6842     5.3804    -2.5181 H       
  47 H47            5.6395     5.5965    -3.9430 H       
  48 H48            4.9541     5.7413    -2.3067 H       
@<TRIPOS>BOND
   1    1    2 ar
   2    1    6 ar
   3    2    3 ar
   4    2   27 1
   5    3    4 ar
   6    3   31 1
   7    4    5 ar
   8    4    7 1
   9    5    6 ar
  10    5   32 1
  11    6   33 1
  12    7   15 2
  13    7   18 1
  14    8    9 1
  15    8   16 1
  16    8   34 1
  17    9   10 ar
  18    9   14 ar
  19   10   11 ar
  20   10   35 1
  21   11   12 ar
  22   11   22 1
  23   12   13 ar
  24   12   24 1
  25   13   14 ar
  26   13   36 1
  27   14   37 1
  28   15   16 1
  29   16   17 2
  30   17   18 1
  31   18   19 1
  32   19   20 1
  33   19   38 1
  34   19   39 1
  35   20   21 am
  36   20   28 2
  37   21   29 1
  38   21   40 1
  39   22   23 1
  40   23   24 1
  41   23   25 1
  42   23   26 1
  43   27   41 1
  44   27   42 1
  45   27   43 1
  46   29   30 1
  47   29   44 1
  48   29   45 1
  49   30   46 1
  50   30   47 1
  51   30   48 1

#	End of record

