#	Name: ASD01911559
#	Creating user name:	WinNT
#	Creation time:	15. 06. 2019 19:58

#	Modifying user name:	WinNT
#	Modification time:	15. 06. 2019 19:58

#	Program:	/corina/corina34_cracker 3.40 0067  02.08.2006

@<TRIPOS>MOLECULE
ASD01911559
  34   36    0    0    0
SMALL
NO_CHARGES


@<TRIPOS>ATOM
   1 N1            -0.0171     1.3436     0.0002 N.am    
   2 C2             0.0021    -0.0041     0.0020 C.2     
   3 C3            -1.2508    -0.7543     0.1205 C.2     
   4 C4            -1.3862    -2.1135     0.0310 C.2     
   5 S5            -2.8471    -0.0659     0.4110 S.3     
   6 C6            -3.5481    -1.6813     0.3766 C.2     
   7 N7            -2.6015    -2.5625     0.1688 N.2     
   8 C8            -4.9365    -1.9845     0.5531 C.1     
   9 C9            -6.0747    -2.2331     0.6978 C.1     
  10 C10           -7.4631    -2.5364     0.8742 C.ar    
  11 C11           -7.9039    -3.8623     0.8264 C.ar    
  12 C12           -9.2445    -4.1465     0.9980 C.ar    
  13 C13          -10.1506    -3.1203     1.2170 C.ar    
  14 C14           -9.7198    -1.8067     1.2652 C.ar    
  15 C15           -8.3832    -1.5085     1.1009 C.ar    
  16 O16            1.0602    -0.5978    -0.0948 O.2     
  17 F17           -9.6737    -5.4267     0.9519 F       
  18 C18           -1.2238     2.1834     0.0062 C.3     
  19 C19            1.1686     2.2197    -0.0018 C.3     
  20 C20            0.6747     3.5540    -0.6146 C.3     
  21 C21           -0.7585     3.6544    -0.0250 C.3     
  22 H22           -0.5446    -2.7679    -0.1420 H       
  23 H23           -7.1983    -4.6619     0.6554 H       
  24 H24          -11.1980    -3.3476     1.3503 H       
  25 H25          -10.4315    -1.0125     1.4359 H       
  26 H26           -8.0492    -0.4821     1.1389 H       
  27 H27           -1.8300     1.9676    -0.8736 H       
  28 H28           -1.8011     1.9963     0.9117 H       
  29 H29            1.5246     2.3785     1.0161 H       
  30 H30            1.9578     1.7886    -0.6176 H       
  31 H31            1.2921     4.3886    -0.2825 H       
  32 H32            0.6486     3.4981    -1.7028 H       
  33 H33           -1.4015     4.2491    -0.6738 H       
  34 H34           -0.7330     4.0715     0.9817 H       
@<TRIPOS>BOND
   1    1    2 am
   2    1   18 1
   3    1   19 1
   4    2    3 1
   5    2   16 2
   6    3    4 2
   7    3    5 1
   8    4    7 1
   9    4   22 1
  10    5    6 1
  11    6    7 2
  12    6    8 1
  13    8    9 3
  14    9   10 1
  15   10   11 ar
  16   10   15 ar
  17   11   12 ar
  18   11   23 1
  19   12   13 ar
  20   12   17 1
  21   13   14 ar
  22   13   24 1
  23   14   15 ar
  24   14   25 1
  25   15   26 1
  26   18   21 1
  27   18   27 1
  28   18   28 1
  29   19   20 1
  30   19   29 1
  31   19   30 1
  32   20   21 1
  33   20   31 1
  34   20   32 1
  35   21   33 1
  36   21   34 1

#	End of record

