#	Name: ASD01884422
#	Creating user name:	WinNT
#	Creation time:	15. 06. 2019 19:48

#	Modifying user name:	WinNT
#	Modification time:	15. 06. 2019 19:48

#	Program:	/corina/corina34_cracker 3.40 0067  02.08.2006

@<TRIPOS>MOLECULE
ASD01884422
  43   45    0    0    0
SMALL
NO_CHARGES


@<TRIPOS>ATOM
   1 C1            -0.0164     1.3576     0.0095 C.2     
   2 C2             0.0021    -0.0041     0.0020 C.2     
   3 C3             1.2440    -0.6751    -0.0134 C.2     
   4 C4             2.4024     0.0465    -0.0206 C.2     
   5 N5             2.3700     1.4025    -0.0130 N.am    
   6 C6             1.1986     2.0652     0.0017 C.2     
   7 C7             1.2897    -2.1583    -0.0214 C.ar    
   8 C8             3.6265     2.1556    -0.0210 C.3     
   9 O9             1.1910     3.2857     0.0087 O.2     
  10 C10            4.0438     2.4215    -1.4444 C.ar    
  11 C11            3.6198     3.5702    -2.0859 C.ar    
  12 C12            4.0026     3.8141    -3.3916 C.ar    
  13 C13            4.8097     2.9094    -4.0558 C.ar    
  14 C14            5.2344     1.7611    -3.4140 C.ar    
  15 C15            4.8552     1.5194    -2.1068 C.ar    
  16 C16            0.8122    -2.8771     1.0732 C.ar    
  17 C17            1.8049    -2.8348    -1.1257 C.ar    
  18 C18            1.8465    -4.2130    -1.1310 C.ar    
  19 C19            1.3751    -4.9277    -0.0361 C.ar    
  20 C20            0.8556    -4.2553     1.0638 C.ar    
  21 N21            1.4182    -6.3236    -0.0435 N.pl3   
  22 C22            1.9600    -7.0336    -1.2049 C.3     
  23 C23            0.9216    -7.0779     1.1100 C.3     
  24 H24           -0.9563     1.8895     0.0169 H       
  25 H25           -0.9217    -0.5635     0.0082 H       
  26 H26            3.3528    -0.4664    -0.0321 H       
  27 H27            3.4856     3.1030     0.4993 H       
  28 H28            4.4006     1.5763     0.4824 H       
  29 H29            2.9893     4.2771    -1.5671 H       
  30 H30            3.6707     4.7113    -3.8930 H       
  31 H31            5.1081     3.0996    -5.0761 H       
  32 H32            5.8647     1.0542    -3.9330 H       
  33 H33            5.1871     0.6222    -1.6054 H       
  34 H34            0.4088    -2.3550     1.9282 H       
  35 H35            2.1710    -2.2798    -1.9769 H       
  36 H36            2.2454    -4.7375    -1.9867 H       
  37 H37            0.4899    -4.8125     1.9136 H       
  38 H38            3.0315    -7.1830    -1.0720 H       
  39 H39            1.4674    -8.0011    -1.3015 H       
  40 H40            1.7841    -6.4448    -2.1052 H       
  41 H41           -0.1387    -7.2917     0.9752 H       
  42 H42            1.4729    -8.0143     1.1965 H       
  43 H43            1.0611    -6.4891     2.0166 H       
@<TRIPOS>BOND
   1    1    2 2
   2    1    6 1
   3    1   24 1
   4    2    3 1
   5    2   25 1
   6    3    4 2
   7    3    7 1
   8    4    5 1
   9    4   26 1
  10    5    6 am
  11    5    8 1
  12    6    9 2
  13    7   16 ar
  14    7   17 ar
  15    8   10 1
  16    8   27 1
  17    8   28 1
  18   10   11 ar
  19   10   15 ar
  20   11   12 ar
  21   11   29 1
  22   12   13 ar
  23   12   30 1
  24   13   14 ar
  25   13   31 1
  26   14   15 ar
  27   14   32 1
  28   15   33 1
  29   16   20 ar
  30   16   34 1
  31   17   18 ar
  32   17   35 1
  33   18   19 ar
  34   18   36 1
  35   19   20 ar
  36   19   21 1
  37   20   37 1
  38   21   22 1
  39   21   23 1
  40   22   38 1
  41   22   39 1
  42   22   40 1
  43   23   41 1
  44   23   42 1
  45   23   43 1

#	End of record

