#	Name: ASD01912027
#	Creating user name:	WinNT
#	Creation time:	15. 06. 2019 19:58

#	Modifying user name:	WinNT
#	Modification time:	15. 06. 2019 19:58

#	Program:	/corina/corina34_cracker 3.40 0067  02.08.2006

@<TRIPOS>MOLECULE
ASD01912027
  39   42    0    0    0
SMALL
NO_CHARGES


@<TRIPOS>ATOM
   1 C1             0.1639     1.0883     0.8407 C.ar    
   2 C2             0.0025    -0.0048     0.0024 C.ar    
   3 C3             1.0263    -0.3924    -0.8448 C.ar    
   4 C4             2.2190     0.3117    -0.8589 C.ar    
   5 C5             2.3844     1.4161    -0.0132 C.ar    
   6 C6             1.3458     1.7978     0.8368 C.ar    
   7 C7             3.6542     2.1737    -0.0208 C.ar    
   8 N8             4.8211     1.5409     0.0648 N.ar    
   9 C9             5.9595     2.2162     0.0578 C.ar    
  10 N10            5.9938     3.5394    -0.0337 N.ar    
  11 C11            4.8829     4.2473    -0.1226 C.ar    
  12 C12            3.6510     3.5828    -0.1251 C.ar    
  13 C13            2.4217     4.3112    -0.2199 C.1     
  14 N14            1.4465     4.8891    -0.2950 N.1     
  15 N15            7.1522     1.5198     0.1493 N.pl3   
  16 C16            8.3515     2.2020     0.1439 C.2     
  17 O17            9.5646     1.6280     0.2275 O.3     
  18 C18           10.4979     2.6066     0.1919 C.ar    
  19 C19            9.7978     3.8174     0.0817 C.ar    
  20 N20            8.4744     3.5009     0.0512 N.2     
  21 C21           11.8826     2.6133     0.2407 C.ar    
  22 C22           12.5673     3.8101     0.1808 C.ar    
  23 C23           11.8793     5.0090     0.0724 C.ar    
  24 C24           10.5027     5.0205     0.0218 C.ar    
  25 F25           -1.1589    -0.6948     0.0131 F       
  26 O26            3.2241    -0.0674    -1.6889 O.3     
  27 C27            2.9838    -1.2031    -2.5222 C.3     
  28 H28           -0.6410     1.3875     1.4958 H       
  29 H29            0.8951    -1.2446    -1.4951 H       
  30 H30            1.4677     2.6485     1.4910 H       
  31 H31            4.9242     5.3240    -0.1962 H       
  32 H32            7.1449     0.5522     0.2171 H       
  33 H33           12.4252     1.6834     0.3258 H       
  34 H34           13.6466     3.8128     0.2191 H       
  35 H35           12.4259     5.9394     0.0271 H       
  36 H36            9.9710     5.9567    -0.0627 H       
  37 H37            3.8647    -1.3978    -3.1339 H       
  38 H38            2.7744    -2.0729    -1.8995 H       
  39 H39            2.1290    -1.0049    -3.1689 H       
@<TRIPOS>BOND
   1    1    2 ar
   2    1    6 ar
   3    1   28 1
   4    2    3 ar
   5    2   25 1
   6    3    4 ar
   7    3   29 1
   8    4    5 ar
   9    4   26 1
  10    5    6 ar
  11    5    7 1
  12    6   30 1
  13    7    8 ar
  14    7   12 ar
  15    8    9 ar
  16    9   10 ar
  17    9   15 1
  18   10   11 ar
  19   11   12 ar
  20   11   31 1
  21   12   13 1
  22   13   14 3
  23   15   16 1
  24   15   32 1
  25   16   17 1
  26   16   20 2
  27   17   18 1
  28   18   19 ar
  29   18   21 ar
  30   19   20 1
  31   19   24 ar
  32   21   22 ar
  33   21   33 1
  34   22   23 ar
  35   22   34 1
  36   23   24 ar
  37   23   35 1
  38   24   36 1
  39   26   27 1
  40   27   37 1
  41   27   38 1
  42   27   39 1

#	End of record

