#	Name: ASD01900001
#	Creating user name:	WinNT
#	Creation time:	15. 06. 2019 19:51

#	Modifying user name:	WinNT
#	Modification time:	15. 06. 2019 19:51

#	Program:	/corina/corina34_cracker 3.40 0067  02.08.2006

@<TRIPOS>MOLECULE
ASD01900001
  36   39    0    0    0
SMALL
NO_CHARGES


@<TRIPOS>ATOM
   1 C1            -0.0131     1.3779     0.1188 C.ar    
   2 C2             0.0259     0.0086     0.3181 C.ar    
   3 C3             1.2261    -0.6769     0.2829 C.ar    
   4 C4             2.4057     0.0079     0.0462 C.ar    
   5 C5             2.3620     1.3959    -0.1659 C.ar    
   6 C6             1.1535     2.0780    -0.1239 C.ar    
   7 O7             3.5978    -0.6405     0.0335 O.3     
   8 C8             4.5644    -0.2465    -0.9467 C.3     
   9 C9             4.6490     1.2643    -1.2414 C.3     
  10 C10            3.6406     2.0941    -0.4493 C.2     
  11 N11            3.8805     3.3044    -0.0590 N.2     
  12 O12            5.1219     3.9136    -0.3636 O.3     
  13 C13            5.8496    -1.0336    -0.9491 C.2     
  14 O14            6.7865    -0.6629    -1.6242 O.2     
  15 N15            5.9578    -2.1494    -0.2010 N.am    
  16 C16            4.0528     0.2807    -2.2862 C.3     
  17 C17            7.0259    -4.3156    -0.1736 C.ar    
  18 C18            8.1691    -5.0868    -0.2499 C.ar    
  19 C19            9.4007    -4.4842    -0.4290 C.ar    
  20 C20            9.4921    -3.1082    -0.5323 C.ar    
  21 C21            8.3525    -2.3315    -0.4577 C.ar    
  22 C22            7.1142    -2.9336    -0.2774 C.ar    
  23 H23           -0.9582     1.8998     0.1485 H       
  24 H24           -0.8915    -0.5303     0.5035 H       
  25 H25            1.2434    -1.7452     0.4403 H       
  26 H26            1.1254     3.1464    -0.2791 H       
  27 H27            5.6232     1.7194    -1.4202 H       
  28 H28            5.2086     4.8174    -0.0308 H       
  29 H29            5.2341    -2.4089     0.3905 H       
  30 H30            4.6521     0.0686    -3.1716 H       
  31 H31            2.9740     0.2943    -2.4419 H       
  32 H32            6.0638    -4.7871    -0.0378 H       
  33 H33            8.1011    -6.1616    -0.1692 H       
  34 H34           10.2933    -5.0894    -0.4880 H       
  35 H35           10.4555    -2.6405    -0.6718 H       
  36 H36            8.4246    -1.2569    -0.5377 H       
@<TRIPOS>BOND
   1    1    2 ar
   2    1    6 ar
   3    1   23 1
   4    2    3 ar
   5    2   24 1
   6    3    4 ar
   7    3   25 1
   8    4    5 ar
   9    4    7 1
  10    5    6 ar
  11    5   10 1
  12    6   26 1
  13    7    8 1
  14    8   13 1
  15    8   16 1
  16    8    9 1
  17    9   10 1
  18    9   16 1
  19    9   27 1
  20   10   11 2
  21   11   12 1
  22   12   28 1
  23   13   14 2
  24   13   15 am
  25   15   22 1
  26   15   29 1
  27   16   30 1
  28   16   31 1
  29   17   18 ar
  30   17   22 ar
  31   17   32 1
  32   18   19 ar
  33   18   33 1
  34   19   20 ar
  35   19   34 1
  36   20   21 ar
  37   20   35 1
  38   21   22 ar
  39   21   36 1

#	End of record

