#	Name: ASD03092029
#	Creating user name:	WinNT
#	Creation time:	15. 06. 2019 20:31

#	Modifying user name:	WinNT
#	Modification time:	15. 06. 2019 20:31

#	Program:	/corina/corina34_cracker 3.40 0067  02.08.2006

@<TRIPOS>MOLECULE
ASD03092029
  49   51    0    0    0
SMALL
NO_CHARGES


@<TRIPOS>ATOM
   1 N1             0.2723     0.9207    -0.3888 N.pl3   
   2 C2             0.0732    -0.3366     0.0983 C.2     
   3 C3            -1.2682    -0.4879     0.3048 C.2     
   4 C4            -1.8961     0.7079    -0.0666 C.2     
   5 N5            -0.9758     1.5505    -0.4754 N.2     
   6 C6             1.5632     1.5109    -0.7515 C.3     
   7 C7             1.8081     1.3163    -2.2256 C.2     
   8 N8            -3.2714     0.9634    -0.0066 N.pl3   
   9 C9            -3.7583     2.2419    -0.2962 C.ar    
  10 C10           -5.0367     2.3980    -0.8157 C.ar    
  11 C11           -5.5158     3.6620    -1.1004 C.ar    
  12 C12           -4.7224     4.7726    -0.8683 C.ar    
  13 C13           -3.4472     4.6194    -0.3503 C.ar    
  14 C14           -2.9660     3.3582    -0.0592 C.ar    
  15 C15            1.1187    -1.3518     0.3553 C.ar    
  16 C16            2.3525    -1.2837    -0.3004 C.ar    
  17 C17            3.2966    -2.2577    -0.0249 C.ar    
  18 C18            2.9931    -3.2576     0.8809 C.ar    
  19 N19            1.8206    -3.2965     1.4845 N.ar    
  20 C20            0.8925    -2.3895     1.2598 C.ar    
  21 N21            2.9414     1.7813    -2.7876 N.am    
  22 O22            0.9853     0.7413    -2.9063 O.2     
  23 C23            3.1795     1.5922    -4.2207 C.3     
  24 C24            4.5277     2.2085    -4.5994 C.3     
  25 C25            4.0180    -4.3202     1.1832 C.3     
  26 F26           -5.1928     6.0078    -1.1480 F       
  27 C27           -6.9028     3.8320    -1.6646 C.3     
  28 F28           -7.5041     2.5773    -1.8101 F       
  29 F29           -7.6670     4.6173    -0.7949 F       
  30 F30           -6.8249     4.4593    -2.9127 F       
  31 H31           -1.7576    -1.3720     0.6860 H       
  32 H32            1.5527     2.5765    -0.5224 H       
  33 H33            2.3570     1.0251    -0.1840 H       
  34 H34           -3.8864     0.2536     0.2357 H       
  35 H35           -5.6558     1.5319    -0.9972 H       
  36 H36           -2.8300     5.4872    -0.1704 H       
  37 H37           -1.9717     3.2392     0.3451 H       
  38 H38            2.5629    -0.4916    -1.0037 H       
  39 H39            4.2600    -2.2373    -0.5126 H       
  40 H40           -0.0554    -2.4550     1.7732 H       
  41 H41            3.5994     2.2412    -2.2432 H       
  42 H42            3.1900     0.5265    -4.4497 H       
  43 H43            2.3857     2.0779    -4.7881 H       
  44 H44            4.5172     3.2741    -4.3704 H       
  45 H45            5.3215     1.7227    -4.0320 H       
  46 H46            4.7048     2.0678    -5.6657 H       
  47 H47            4.6391    -3.9986     2.0192 H       
  48 H48            3.5118    -5.2498     1.4433 H       
  49 H49            4.6445    -4.4808     0.3058 H       
@<TRIPOS>BOND
   1    1    2 1
   2    1    6 1
   3    1    5 1
   4    2    3 2
   5    2   15 1
   6    3    4 1
   7    3   31 1
   8    4    5 2
   9    4    8 1
  10    6    7 1
  11    6   32 1
  12    6   33 1
  13    7   21 am
  14    7   22 2
  15    8    9 1
  16    8   34 1
  17    9   10 ar
  18    9   14 ar
  19   10   11 ar
  20   10   35 1
  21   11   12 ar
  22   11   27 1
  23   12   13 ar
  24   12   26 1
  25   13   14 ar
  26   13   36 1
  27   14   37 1
  28   15   16 ar
  29   15   20 ar
  30   16   17 ar
  31   16   38 1
  32   17   18 ar
  33   17   39 1
  34   18   19 ar
  35   18   25 1
  36   19   20 ar
  37   20   40 1
  38   21   23 1
  39   21   41 1
  40   23   24 1
  41   23   42 1
  42   23   43 1
  43   24   44 1
  44   24   45 1
  45   24   46 1
  46   25   47 1
  47   25   48 1
  48   25   49 1
  49   27   28 1
  50   27   29 1
  51   27   30 1

#	End of record

