#	Name: ASD05730119
#	Creating user name:	WinNT
#	Creation time:	15. 06. 2019 21:02

#	Modifying user name:	WinNT
#	Modification time:	15. 06. 2019 21:02

#	Program:	/corina/corina34_cracker 3.40 0067  02.08.2006

@<TRIPOS>MOLECULE
ASD05730119
  86   91    0    0    0
SMALL
NO_CHARGES


@<TRIPOS>ATOM
   1 C1            -0.6762     0.7410     0.8346 C.3     
   2 C2            -0.5599    -0.7566     0.7142 C.ar    
   3 C3            -1.5254    -1.5711     1.2771 C.ar    
   4 C4            -1.4219    -2.9439     1.1685 C.ar    
   5 C5            -0.3466    -3.5065     0.4927 C.ar    
   6 C6             0.6213    -2.6855    -0.0719 C.ar    
   7 C7             0.5091    -1.3133     0.0362 C.ar    
   8 N8            -0.2385    -4.8959     0.3814 N.pl3   
   9 C9             0.2994    -5.4576    -0.7606 C.ar    
  10 N10            0.4929    -6.7671    -0.7969 N.ar    
  11 C11            1.0074    -7.3435    -1.8774 C.ar    
  12 C12            1.3428    -6.5329    -2.9836 C.ar    
  13 C13            1.1185    -5.1507    -2.8954 C.ar    
  14 N14            0.5983    -4.6649    -1.7839 N.ar    
  15 N15            1.2117    -8.6994    -1.9235 N.am    
  16 C16            1.7346    -9.2785    -3.0215 C.2     
  17 C17            2.0939    -8.4665    -4.1860 C.2     
  18 C18            1.8919    -7.1128    -4.1498 C.2     
  19 C19            0.8581    -9.5257    -0.7667 C.3     
  20 O20            1.9099   -10.4837    -3.0457 O.2     
  21 C21            2.6694    -9.1044    -5.3932 C.ar    
  22 C22            3.9930    -9.5428    -5.3895 C.ar    
  23 C23            0.5489     1.2919     1.5697 C.3     
  24 S24            1.4428   -10.0846    -9.1006 S.o2    
  25 C25            1.0560    -8.3966    -9.6408 C.3     
  26 O26            0.2718   -10.7385    -8.6310 O.2     
  27 O27            2.3134   -10.7178   -10.0282 O.2     
  28 C28           -0.9633    -6.4386   -10.4899 C.3     
  29 N29           -0.0125    -7.0801   -11.4078 N.3     
  30 C30            0.3007    -8.4471   -10.9704 C.3     
  31 C31           -0.7455     1.3629    -0.5629 C.3     
  32 C32           -0.8021     2.8869    -0.4355 C.3     
  33 N33            0.3917     3.3647     0.2738 N.3     
  34 C34            0.4548     2.8180     1.6352 C.3     
  35 C35           -0.5921    -9.9952    -0.8995 C.3     
  36 C36            1.8876    -9.2739    -6.5357 C.ar    
  37 C37            2.4290    -9.8690    -7.6565 C.ar    
  38 C38            3.7446   -10.2973    -7.6486 C.ar    
  39 C39            4.5234   -10.1367    -6.5168 C.ar    
  40 C40            0.4543    -8.8085    -6.5457 C.3     
  41 C41            0.4401     4.8328     0.2933 C.3     
  42 C42           -1.1182   -10.9706     0.1553 C.3     
  43 C43           -1.5895    -9.5150     0.1567 C.3     
  44 C44           -0.5234    -7.0721   -12.7851 C.3     
  45 H45           -1.5787     0.9927     1.3915 H       
  46 H46           -2.3612    -1.1330     1.8024 H       
  47 H47           -2.1759    -3.5794     1.6089 H       
  48 H48            1.4585    -3.1198    -0.5980 H       
  49 H49            1.2613    -0.6744    -0.4026 H       
  50 H50           -0.5411    -5.4655     1.1058 H       
  51 H51            1.3624    -4.4987    -3.7211 H       
  52 H52            2.1505    -6.4971    -4.9986 H       
  53 H53            1.5180   -10.3922    -0.7237 H       
  54 H54            0.9681    -8.9396     0.1457 H       
  55 H55            4.6021    -9.4176    -4.5065 H       
  56 H56            0.5800     0.8855     2.5806 H       
  57 H57            1.4539     1.0058     1.0338 H       
  58 H58            0.4362    -7.9077    -8.8892 H       
  59 H59            1.9814    -7.8354    -9.7696 H       
  60 H60           -0.5305    -6.3952    -9.4905 H       
  61 H61           -1.1778    -5.4279   -10.8371 H       
  62 H62           -1.8869    -7.0166   -10.4612 H       
  63 H63            0.9205    -8.9360   -11.7220 H       
  64 H64           -0.6247    -9.0084   -10.8415 H       
  65 H65            0.1391     1.0779    -1.1323 H       
  66 H66           -1.6392     1.0072    -1.0755 H       
  67 H67           -0.8371     3.3334    -1.4292 H       
  68 H68           -1.6942     3.1719     0.1222 H       
  69 H69           -0.4432     3.1033     2.1832 H       
  70 H70            1.3327     3.2144     2.1454 H       
  71 H71           -0.9566   -10.1126    -1.9200 H       
  72 H72            4.1640   -10.7626    -8.5284 H       
  73 H73            5.5497   -10.4729    -6.5166 H       
  74 H74            0.3984    -7.8139    -6.9881 H       
  75 H75           -0.1487    -9.5016    -7.1324 H       
  76 H76            0.0766    -8.7734    -5.5238 H       
  77 H77           -0.4449     5.2188     0.7991 H       
  78 H78            1.3339     5.1599     0.8245 H       
  79 H79            0.4672     5.2090    -0.7294 H       
  80 H80           -1.8292   -11.7295    -0.1712 H       
  81 H81           -0.4313   -11.2779     0.9438 H       
  82 H82           -1.2127    -8.8647     0.9461 H       
  83 H83           -2.6106    -9.3163    -0.1689 H       
  84 H84           -0.7472    -6.0480   -13.0836 H       
  85 H85            0.2292    -7.4894   -13.4541 H       
  86 H86           -1.4311    -7.6731   -12.8394 H       
@<TRIPOS>BOND
   1    1    2 1
   2    1   23 1
   3    1   31 1
   4    1   45 1
   5    2    3 ar
   6    2    7 ar
   7    3    4 ar
   8    3   46 1
   9    4    5 ar
  10    4   47 1
  11    5    6 ar
  12    5    8 1
  13    6    7 ar
  14    6   48 1
  15    7   49 1
  16    8    9 1
  17    8   50 1
  18    9   10 ar
  19    9   14 ar
  20   10   11 ar
  21   11   12 ar
  22   11   15 1
  23   12   13 ar
  24   12   18 1
  25   13   14 ar
  26   13   51 1
  27   15   16 am
  28   15   19 1
  29   16   17 1
  30   16   20 2
  31   17   18 2
  32   17   21 1
  33   18   52 1
  34   19   35 1
  35   19   53 1
  36   19   54 1
  37   21   36 ar
  38   21   22 ar
  39   22   39 ar
  40   22   55 1
  41   23   34 1
  42   23   56 1
  43   23   57 1
  44   24   25 1
  45   24   26 2
  46   24   27 2
  47   24   37 1
  48   25   30 1
  49   25   58 1
  50   25   59 1
  51   28   29 1
  52   28   60 1
  53   28   61 1
  54   28   62 1
  55   29   30 1
  56   29   44 1
  57   30   63 1
  58   30   64 1
  59   31   32 1
  60   31   65 1
  61   31   66 1
  62   32   33 1
  63   32   67 1
  64   32   68 1
  65   33   34 1
  66   33   41 1
  67   34   69 1
  68   34   70 1
  69   35   42 1
  70   35   43 1
  71   35   71 1
  72   36   37 ar
  73   36   40 1
  74   37   38 ar
  75   38   39 ar
  76   38   72 1
  77   39   73 1
  78   40   74 1
  79   40   75 1
  80   40   76 1
  81   41   77 1
  82   41   78 1
  83   41   79 1
  84   42   43 1
  85   42   80 1
  86   42   81 1
  87   43   82 1
  88   43   83 1
  89   44   84 1
  90   44   85 1
  91   44   86 1

#	End of record

