#	Name: ASD02198295
#	Creating user name:	WinNT
#	Creation time:	15. 06. 2019 20:19

#	Modifying user name:	WinNT
#	Modification time:	15. 06. 2019 20:19

#	Program:	/corina/corina34_cracker 3.40 0067  02.08.2006

@<TRIPOS>MOLECULE
ASD02198295
  44   47    0    0    0
SMALL
NO_CHARGES


@<TRIPOS>ATOM
   1 C1            -0.0166     1.3766     0.0096 C.2     
   2 C2             0.0021    -0.0041     0.0020 C.2     
   3 S3             1.6541     1.9352    -0.0033 S.3     
   4 C4             2.2115     0.3201    -0.0173 C.2     
   5 N5             1.2123    -0.5140    -0.0123 N.2     
   6 N6            -1.1481    -0.7788     0.0093 N.pl3   
   7 C7            -1.1672     2.1933     0.0197 C.2     
   8 O8            -2.2766     1.6846     0.0225 O.2     
   9 C9            -1.0296     3.6569     0.0270 C.2     
  10 N10            3.5378    -0.0491    -0.0324 N.pl3   
  11 C11            3.9033    -1.4677    -0.0435 C.3     
  12 S12            0.4845     4.5580     0.0238 S.3     
  13 C13           -0.3792     6.0329     0.0365 C.2     
  14 N14           -1.6625     5.8101     0.0422 N.2     
  15 C15           -2.0547     4.5637     0.0315 C.2     
  16 C16            0.2431     7.3736     0.0410 C.ar    
  17 C17           -0.5573     8.5177     0.0515 C.ar    
  18 N18            1.5689     7.4948     0.0405 N.ar    
  19 C19            2.1195     8.6936     0.0450 C.ar    
  20 C20            1.3211     9.8260     0.0506 C.ar    
  21 N21            0.0040     9.7123     0.0559 N.ar    
  22 C22            5.2974    -1.6480    -0.6692 C.3     
  23 C23            6.1891    -2.2843     0.4170 C.3     
  24 C24            5.1878    -2.9898     1.3651 C.3     
  25 C25            3.9964    -2.0007     1.4012 C.3     
  26 C26           -3.5067     4.1604     0.0355 C.3     
  27 H27           -2.0196    -0.3531     0.0202 H       
  28 H28           -1.0810    -1.7465     0.0034 H       
  29 H29            4.2303     0.6302    -0.0357 H       
  30 H30            3.1648    -2.0389    -0.6061 H       
  31 H31           -1.6334     8.4254     0.0557 H       
  32 H32            3.1949     8.7926     0.0446 H       
  33 H33            1.7765    10.8053     0.0545 H       
  34 H34            5.2357    -2.3074    -1.5350 H       
  35 H35            5.7021    -0.6800    -0.9647 H       
  36 H36            6.8710    -3.0101    -0.0261 H       
  37 H37            6.7449    -1.5151     0.9532 H       
  38 H38            4.8793    -3.9514     0.9549 H       
  39 H39            5.6180    -3.1127     2.3591 H       
  40 H40            4.1981    -1.1857     2.0963 H       
  41 H41            3.0781    -2.5195     1.6763 H       
  42 H42           -3.8627     4.0743    -0.9911 H       
  43 H43           -3.6157     3.2002     0.5397 H       
  44 H44           -4.0920     4.9151     0.5609 H       
@<TRIPOS>BOND
   1    1    2 2
   2    1    3 1
   3    1    7 1
   4    2    6 1
   5    2    5 1
   6    3    4 1
   7    4    5 2
   8    4   10 1
   9    6   27 1
  10    6   28 1
  11    7    8 2
  12    7    9 1
  13    9   12 1
  14    9   15 2
  15   10   11 1
  16   10   29 1
  17   11   22 1
  18   11   25 1
  19   11   30 1
  20   12   13 1
  21   13   14 2
  22   13   16 1
  23   14   15 1
  24   15   26 1
  25   16   17 ar
  26   16   18 ar
  27   17   21 ar
  28   17   31 1
  29   18   19 ar
  30   19   20 ar
  31   19   32 1
  32   20   21 ar
  33   20   33 1
  34   22   23 1
  35   22   34 1
  36   22   35 1
  37   23   24 1
  38   23   36 1
  39   23   37 1
  40   24   25 1
  41   24   38 1
  42   24   39 1
  43   25   40 1
  44   25   41 1
  45   26   42 1
  46   26   43 1
  47   26   44 1

#	End of record

