#	Name: ASD08710044
#	Creating user name:	WinNT
#	Creation time:	15. 06. 2019 21:19

#	Modifying user name:	WinNT
#	Modification time:	15. 06. 2019 21:19

#	Program:	/corina/corina34_cracker 3.40 0067  02.08.2006

@<TRIPOS>MOLECULE
ASD08710044
  50   52    0    0    0
SMALL
NO_CHARGES


@<TRIPOS>ATOM
   1 C1             0.0453     1.4205     0.0430 C.ar    
   2 C2             0.0448     0.0392     0.0294 C.ar    
   3 C3             1.2476     2.1127     0.0316 C.ar    
   4 C4             2.4466     1.4154     0.0064 C.ar    
   5 C5             2.4407     0.0340    -0.0072 C.ar    
   6 C6             1.2412    -0.6535     0.0043 C.ar    
   7 S7             1.2371    -2.4154    -0.0131 S.o2    
   8 O8            -0.0216    -2.8086    -0.5423 O.2     
   9 O9             2.4775    -2.8140    -0.5804 O.2     
  10 N10            1.2601    -2.9213     1.5636 N.am    
  11 C11            0.0055    -3.1470     2.2950 C.3     
  12 C12            2.5353    -3.1583     2.2546 C.3     
  13 C13            2.5351    -4.5893     2.8064 C.3     
  14 N14            1.2806    -4.8097     3.5396 N.am    
  15 C15            0.0106    -4.5780     2.8468 C.3     
  16 C16            1.2992    -5.2222     4.8225 C.2     
  17 C17            0.0339    -5.3502     5.5763 C.ar    
  18 O18            2.3564    -5.4891     5.3598 O.2     
  19 C19           -0.1417    -4.6790     6.7873 C.ar    
  20 N20           -1.2685    -4.7928     7.4587 N.ar    
  21 C21           -2.2678    -5.5360     7.0222 C.ar    
  22 C22           -2.1724    -6.2326     5.8312 C.ar    
  23 C23           -1.0105    -6.1421     5.0847 C.ar    
  24 C24            2.6356    -5.5858     1.6498 C.3     
  25 C25            0.9682    -3.8168     7.3312 C.3     
  26 O26            1.2507     3.4717     0.0445 O.3     
  27 C27            2.5253     4.1177     0.0316 C.3     
  28 F28            3.2221     3.7512    -1.1249 F       
  29 F29            2.3452     5.5049     0.0475 F       
  30 F30            3.2564     3.7293     1.1593 F       
  31 H31           -0.8895     1.9612     0.0581 H       
  32 H32           -0.8908    -0.5002     0.0386 H       
  33 H33            3.3838     1.9520    -0.0029 H       
  34 H34            3.3739    -0.5093    -0.0271 H       
  35 H35           -0.0703    -2.4375     3.1190 H       
  36 H36           -0.8401    -3.0185     1.6194 H       
  37 H37            3.3600    -3.0373     1.5522 H       
  38 H38            2.6438    -2.4497     3.0756 H       
  39 H39            3.3810    -4.7214     3.4810 H       
  40 H40           -0.8156    -4.6978     3.5476 H       
  41 H41           -0.0947    -5.2900     2.0282 H       
  42 H42           -3.1749    -5.6015     7.6047 H       
  43 H43           -2.9975    -6.8376     5.4853 H       
  44 H44           -0.9090    -6.6755     4.1511 H       
  45 H45            3.5595    -5.4104     1.0985 H       
  46 H46            2.6353    -6.6018     2.0444 H       
  47 H47            1.7838    -5.4549     0.9824 H       
  48 H48            0.9073    -2.8232     6.8872 H       
  49 H49            0.8693    -3.7375     8.4138 H       
  50 H50            1.9306    -4.2660     7.0861 H       
@<TRIPOS>BOND
   1    1    2 ar
   2    1    3 ar
   3    1   31 1
   4    2    6 ar
   5    2   32 1
   6    3    4 ar
   7    3   26 1
   8    4    5 ar
   9    4   33 1
  10    5    6 ar
  11    5   34 1
  12    6    7 1
  13    7    8 2
  14    7    9 2
  15    7   10 am
  16   10   11 1
  17   10   12 1
  18   11   15 1
  19   11   35 1
  20   11   36 1
  21   12   13 1
  22   12   37 1
  23   12   38 1
  24   13   14 1
  25   13   24 1
  26   13   39 1
  27   14   15 1
  28   14   16 am
  29   15   40 1
  30   15   41 1
  31   16   17 1
  32   16   18 2
  33   17   19 ar
  34   17   23 ar
  35   19   20 ar
  36   19   25 1
  37   20   21 ar
  38   21   22 ar
  39   21   42 1
  40   22   23 ar
  41   22   43 1
  42   23   44 1
  43   24   45 1
  44   24   46 1
  45   24   47 1
  46   25   48 1
  47   25   49 1
  48   25   50 1
  49   26   27 1
  50   27   28 1
  51   27   29 1
  52   27   30 1

#	End of record

