#	Name: ASD01410457
#	Creating user name:	WinNT
#	Creation time:	15. 06. 2019 19:17

#	Modifying user name:	WinNT
#	Modification time:	15. 06. 2019 19:17

#	Program:	/corina/corina34_cracker 3.40 0067  02.08.2006

@<TRIPOS>MOLECULE
ASD01410457
  35   37    0    0    0
SMALL
NO_CHARGES


@<TRIPOS>ATOM
   1 S1            -0.0221     1.7701     0.0556 S.3     
   2 C2            -0.0025     0.0162     0.3121 C.2     
   3 N3             1.2551    -0.3416     0.4280 N.2     
   4 C4             2.2128     0.5556     0.3460 C.2     
   5 C5             1.7448     1.9351     0.1213 C.2     
   6 O6             3.3947     0.2691     0.4481 O.2     
   7 C7             2.4873     3.0626    -0.0056 C.2     
   8 C8             1.8255     4.3711    -0.1032 C.ar    
   9 C9             2.5161     5.4726    -0.6247 C.ar    
  10 C10            1.8866     6.6975    -0.7124 C.ar    
  11 C11            0.5773     6.8385    -0.2869 C.ar    
  12 C12           -0.1115     5.7547     0.2300 C.ar    
  13 C13            0.5001     4.5224     0.3191 C.ar    
  14 Cl14           4.1587     5.2974    -1.1584 Cl      
  15 S15           -0.8882    -2.4339     0.6243 S.o2    
  16 O16           -2.1908    -2.9993     0.6761 O.2     
  17 O17            0.1069    -2.8576    -0.2975 O.2     
  18 N18           -1.0930    -0.8093     0.3773 N.am    
  19 C19           -0.1947    -2.6338     2.2317 C.ar    
  20 C20           -1.0235    -2.7800     3.3285 C.ar    
  21 C21           -0.4801    -2.9368     4.5896 C.ar    
  22 C22            0.8936    -2.9474     4.7543 C.ar    
  23 C23            1.7225    -2.8009     3.6563 C.ar    
  24 C24            1.1780    -2.6499     2.3949 C.ar    
  25 Cl25           1.5768    -3.1437     6.3380 Cl      
  26 H26            3.5650     2.9990    -0.0350 H       
  27 H27            2.4171     7.5483    -1.1138 H       
  28 H28            0.0902     7.7998    -0.3582 H       
  29 H29           -1.1328     5.8739     0.5604 H       
  30 H30           -0.0408     3.6771     0.7182 H       
  31 H31           -1.9856    -0.4424     0.2789 H       
  32 H32           -2.0957    -2.7714     3.1998 H       
  33 H33           -1.1277    -3.0507     5.4464 H       
  34 H34            2.7948    -2.8091     3.7842 H       
  35 H35            1.8249    -2.5400     1.5372 H       
@<TRIPOS>BOND
   1    1    2 1
   2    1    5 1
   3    2    3 2
   4    2   18 1
   5    3    4 1
   6    4    5 1
   7    4    6 2
   8    5    7 2
   9    7    8 1
  10    7   26 1
  11    8    9 ar
  12    8   13 ar
  13    9   10 ar
  14    9   14 1
  15   10   11 ar
  16   10   27 1
  17   11   12 ar
  18   11   28 1
  19   12   13 ar
  20   12   29 1
  21   13   30 1
  22   15   16 2
  23   15   17 2
  24   15   18 am
  25   15   19 1
  26   18   31 1
  27   19   20 ar
  28   19   24 ar
  29   20   21 ar
  30   20   32 1
  31   21   22 ar
  32   21   33 1
  33   22   23 ar
  34   22   25 1
  35   23   24 ar
  36   23   34 1
  37   24   35 1

#	End of record

