#	Name: ASD01209018
#	Creating user name:	WinNT
#	Creation time:	15. 06. 2019 19:10

#	Modifying user name:	WinNT
#	Modification time:	15. 06. 2019 19:10

#	Program:	/corina/corina34_cracker 3.40 0067  02.08.2006

@<TRIPOS>MOLECULE
ASD01209018
  59   63    0    0    0
SMALL
NO_CHARGES


@<TRIPOS>ATOM
   1 S1             0.3670     1.9753    -0.7286 S.o2    
   2 C2            -6.1869     2.7921    -3.2445 C.3     
   3 C3            -6.1599     1.3213    -3.6652 C.3     
   4 C4            -4.8244     1.0093    -4.3434 C.3     
   5 N5            -3.7449     1.0892    -3.3561 N.pl3   
   6 C6            -2.5815     1.7978    -3.5057 C.ar    
   7 C7            -1.8328     1.6008    -2.3291 C.ar    
   8 C8            -2.6326     0.7284    -1.4754 C.2     
   9 N9            -3.7392     0.4592    -2.1073 N.2     
  10 C10           -2.0635     2.5989    -4.5200 C.ar    
  11 C11           -0.8387     3.1844    -4.3656 C.ar    
  12 C12           -0.0987     2.9914    -3.2058 C.ar    
  13 C13           -0.5816     2.2122    -2.1944 C.ar    
  14 C14           -0.6168     2.7587     0.5787 C.3     
  15 C15           -0.0037     2.8281     1.9788 C.3     
  16 C16           -0.1203     4.0964     1.1309 C.3     
  17 O17            0.3957     0.5653    -0.5538 O.2     
  18 O18            1.5613     2.7091    -0.9615 O.2     
  19 C19           -7.5868     3.1550    -2.7396 C.3     
  20 C20           -7.5835     4.6048    -2.2479 C.3     
  21 O21           -6.5990     4.7567    -1.2233 O.3     
  22 C22           -5.2643     4.4766    -1.6505 C.3     
  23 C23           -5.1745     3.0217    -2.1182 C.3     
  24 C24           -4.8697    -0.3793    -4.9270 C.2     
  25 N25           -5.7898    -0.6875    -5.8624 N.am    
  26 O26           -4.0783    -1.2195    -4.5550 O.2     
  27 C27           -5.8315    -1.9675    -6.4004 C.ar    
  28 C28           -6.7918    -2.2843    -7.3748 C.ar    
  29 C29           -6.8146    -3.5806    -7.9024 C.ar    
  30 C30           -5.8861    -4.4955    -7.4381 C.ar    
  31 C31           -4.9708    -4.1079    -6.4758 C.ar    
  32 N32           -4.9629    -2.8797    -5.9957 N.ar    
  33 C33           -7.7309    -1.2992    -7.8203 C.1     
  34 N34           -8.4758    -0.5178    -8.1737 N.1     
  35 H35           -5.9331     3.4203    -4.0984 H       
  36 H36           -6.2766     0.6894    -2.7847 H       
  37 H37           -6.9753     1.1277    -4.3621 H       
  38 H38           -4.6433     1.7321    -5.1390 H       
  39 H39           -2.3581     0.3732    -0.4932 H       
  40 H40           -2.6284     2.7568    -5.4268 H       
  41 H41           -0.4407     3.8047    -5.1551 H       
  42 H42            0.8674     3.4631    -3.1030 H       
  43 H43           -1.6946     2.6120     0.5080 H       
  44 H44           -0.6782     2.7275     2.8291 H       
  45 H45            0.9908     2.4030     2.1143 H       
  46 H46            0.7975     4.5057     0.7087 H       
  47 H47           -0.8714     4.8301     1.4235 H       
  48 H48           -8.3061     3.0474    -3.5514 H       
  49 H49           -7.8610     2.4925    -1.9186 H       
  50 H50           -7.3489     5.2700    -3.0789 H       
  51 H51           -8.5660     4.8552    -1.8478 H       
  52 H52           -4.9994     5.1401    -2.4737 H       
  53 H53           -4.5762     4.6347    -0.8201 H       
  54 H54           -5.3999     2.3565    -1.2846 H       
  55 H55           -4.1686     2.8187    -2.4857 H       
  56 H56           -6.4228    -0.0154    -6.1600 H       
  57 H57           -7.5393    -3.8599    -8.6529 H       
  58 H58           -5.8763    -5.5043    -7.8237 H       
  59 H59           -4.2467    -4.8231    -6.1144 H       
@<TRIPOS>BOND
   1    1   17 2
   2    1   18 2
   3    1   13 1
   4    1   14 1
   5    2    3 1
   6    2   19 1
   7    2   23 1
   8    2   35 1
   9    3    4 1
  10    3   36 1
  11    3   37 1
  12    4    5 1
  13    4   24 1
  14    4   38 1
  15    5    6 1
  16    5    9 1
  17    6    7 ar
  18    6   10 ar
  19    7    8 1
  20    7   13 ar
  21    8    9 2
  22    8   39 1
  23   10   11 ar
  24   10   40 1
  25   11   12 ar
  26   11   41 1
  27   12   13 ar
  28   12   42 1
  29   14   15 1
  30   14   16 1
  31   14   43 1
  32   15   16 1
  33   15   44 1
  34   15   45 1
  35   16   46 1
  36   16   47 1
  37   19   20 1
  38   19   48 1
  39   19   49 1
  40   20   21 1
  41   20   50 1
  42   20   51 1
  43   21   22 1
  44   22   23 1
  45   22   52 1
  46   22   53 1
  47   23   54 1
  48   23   55 1
  49   24   25 am
  50   24   26 2
  51   25   27 1
  52   25   56 1
  53   27   28 ar
  54   27   32 ar
  55   28   29 ar
  56   28   33 1
  57   29   30 ar
  58   29   57 1
  59   30   31 ar
  60   30   58 1
  61   31   32 ar
  62   31   59 1
  63   33   34 3

#	End of record

