#	Name: ASD01903192
#	Creating user name:	WinNT
#	Creation time:	15. 06. 2019 19:54

#	Modifying user name:	WinNT
#	Modification time:	15. 06. 2019 19:54

#	Program:	/corina/corina34_cracker 3.40 0067  02.08.2006

@<TRIPOS>MOLECULE
ASD01903192
  33   35    0    0    0
SMALL
NO_CHARGES


@<TRIPOS>ATOM
   1 S1            -0.0242     1.7576    -0.0296 S.3     
   2 C2             0.0013    -0.0032    -0.0096 C.2     
   3 N3             1.2320    -0.4153    -0.0142 N.2     
   4 C4             2.1769     0.5141    -0.0320 C.2     
   5 C5             1.7377     1.7832    -0.0433 C.2     
   6 N6            -1.1185    -0.8216     0.0090 N.pl3   
   7 C7            -2.3869    -0.2623     0.1294 C.ar    
   8 N8            -2.5132     1.0402     0.3311 N.ar    
   9 C9            -3.6973     1.6102     0.4504 C.ar    
  10 C10           -4.8547     0.8623     0.3684 C.ar    
  11 C11           -4.7658    -0.5075     0.1575 C.ar    
  12 C12           -3.5112    -1.0759     0.0312 C.ar    
  13 C13            3.6232     0.1751    -0.0386 C.2     
  14 C14            4.6407     0.8841    -0.7053 C.2     
  15 N15            5.7764     0.2801    -0.4735 N.2     
  16 N16            5.5308    -0.8299     0.3439 N.pl3   
  17 C17            4.2071    -0.8760     0.6048 C.2     
  18 C18            2.6029     3.0169    -0.0650 C.3     
  19 O19            2.8651     3.3911    -1.4190 O.3     
  20 C20            3.6820     4.5560    -1.5523 C.3     
  21 H21           -1.0174    -1.7837    -0.0619 H       
  22 H22           -3.7618     2.6757     0.6146 H       
  23 H23           -5.8194     1.3375     0.4675 H       
  24 H24           -5.6564    -1.1146     0.0896 H       
  25 H25           -3.4055    -2.1380    -0.1335 H       
  26 H26            4.5061     1.7726    -1.3044 H       
  27 H27            6.1970    -1.4554     0.6692 H       
  28 H28            3.7014    -1.6149     1.2087 H       
  29 H29            2.0871     3.8314     0.4437 H       
  30 H30            3.5444     2.8094     0.4435 H       
  31 H31            4.6459     4.3804    -1.0747 H       
  32 H32            3.8346     4.7737    -2.6094 H       
  33 H33            3.1886     5.4024    -1.0745 H       
@<TRIPOS>BOND
   1    1    2 1
   2    1    5 1
   3    2    3 2
   4    2    6 1
   5    3    4 1
   6    4    5 2
   7    4   13 1
   8    5   18 1
   9    6    7 1
  10    6   21 1
  11    7    8 ar
  12    7   12 ar
  13    8    9 ar
  14    9   10 ar
  15    9   22 1
  16   10   11 ar
  17   10   23 1
  18   11   12 ar
  19   11   24 1
  20   12   25 1
  21   13   14 1
  22   13   17 2
  23   14   15 2
  24   14   26 1
  25   15   16 1
  26   16   17 1
  27   16   27 1
  28   17   28 1
  29   18   19 1
  30   18   29 1
  31   18   30 1
  32   19   20 1
  33   20   31 1
  34   20   32 1
  35   20   33 1

#	End of record

