#	Name: ASD03731726
#	Creating user name:	WinNT
#	Creation time:	15. 06. 2019 20:46

#	Modifying user name:	WinNT
#	Modification time:	15. 06. 2019 20:46

#	Program:	/corina/corina34_cracker 3.40 0067  02.08.2006

@<TRIPOS>MOLECULE
ASD03731726
  36   37    0    0    0
SMALL
NO_CHARGES


@<TRIPOS>ATOM
   1 C1             0.7580     1.4154    -0.4019 C.2     
   2 C2             0.5737    -0.0456    -0.3015 C.ar    
   3 C3             1.5327    -0.9110    -0.8345 C.ar    
   4 C4             1.3573    -2.2733    -0.7385 C.ar    
   5 C5             0.2278    -2.7882    -0.1126 C.ar    
   6 C6            -0.7286    -1.9305     0.4190 C.ar    
   7 C7            -0.5575    -0.5670     0.3320 C.ar    
   8 O8             1.7453     1.8674    -0.9490 O.2     
   9 N9            -0.1707     2.2485     0.1079 N.am    
  10 S10            0.0362     3.8876    -0.0048 S.o2    
  11 O11           -1.1026     4.4303     0.6494 O.2     
  12 O12            1.3460     4.1109     0.4987 O.2     
  13 C13           -0.0286     4.2307    -1.7849 C.3     
  14 O14            0.0581    -4.1313    -0.0206 O.3     
  15 C15            0.5843    -4.7685     1.0581 C.ar    
  16 C16            1.1758    -4.0361     2.0774 C.ar    
  17 C17            1.7099    -4.6868     3.1738 C.ar    
  18 C18            1.6551    -6.0675     3.2545 C.ar    
  19 C19            1.0661    -6.7984     2.2397 C.ar    
  20 C20            0.5259    -6.1520     1.1446 C.ar    
  21 C21            1.0086    -8.3015     2.3305 C.3     
  22 Cl22           2.4503    -3.7719     4.4499 Cl      
  23 H23            2.4101    -0.5118    -1.3215 H       
  24 H24            2.0981    -2.9428    -1.1502 H       
  25 H25           -1.6049    -2.3342     0.9042 H       
  26 H26           -1.2989     0.0986     0.7488 H       
  27 H27           -0.9603     1.8879     0.5408 H       
  28 H28           -0.9935     3.9142    -2.1810 H       
  29 H29            0.1004     5.2998    -1.9537 H       
  30 H30            0.7683     3.6844    -2.2894 H       
  31 H31            1.2192    -2.9588     2.0141 H       
  32 H32            2.0734    -6.5746     4.1113 H       
  33 H33            0.0623    -6.7236     0.3543 H       
  34 H34            0.0884    -8.6003     2.8326 H       
  35 H35            1.0298    -8.7272     1.3273 H       
  36 H36            1.8660    -8.6644     2.8973 H       
@<TRIPOS>BOND
   1    1    2 1
   2    1    8 2
   3    1    9 am
   4    2    3 ar
   5    2    7 ar
   6    3    4 ar
   7    3   23 1
   8    4    5 ar
   9    4   24 1
  10    5    6 ar
  11    5   14 1
  12    6    7 ar
  13    6   25 1
  14    7   26 1
  15    9   10 am
  16    9   27 1
  17   10   11 2
  18   10   12 2
  19   10   13 1
  20   13   28 1
  21   13   29 1
  22   13   30 1
  23   14   15 1
  24   15   16 ar
  25   15   20 ar
  26   16   17 ar
  27   16   31 1
  28   17   18 ar
  29   17   22 1
  30   18   19 ar
  31   18   32 1
  32   19   20 ar
  33   19   21 1
  34   20   33 1
  35   21   34 1
  36   21   35 1
  37   21   36 1

#	End of record

