#	Name: ASD04882443
#	Creating user name:	WinNT
#	Creation time:	15. 06. 2019 20:54

#	Modifying user name:	WinNT
#	Modification time:	15. 06. 2019 20:54

#	Program:	/corina/corina34_cracker 3.40 0067  02.08.2006

@<TRIPOS>MOLECULE
ASD04882443
  77   82    0    0    0
SMALL
NO_CHARGES


@<TRIPOS>ATOM
   1 C1            -0.0215     1.4012    -0.0092 C.ar    
   2 C2            -0.0116     0.0036    -0.0052 C.ar    
   3 C3            -1.2094    -0.7019    -0.0170 C.ar    
   4 C4            -2.4096    -0.0268    -0.0325 C.ar    
   5 C5            -2.4267     1.3708    -0.0366 C.ar    
   6 C6            -1.2239     2.0825    -0.0186 C.ar    
   7 N7             1.1998    -0.6830     0.0100 N.3     
   8 C8             1.3065    -1.5362     1.2018 C.3     
   9 C9             1.3728    -1.4731    -1.2170 C.3     
  10 C10            2.7466    -2.1474    -1.1969 C.3     
  11 N11            2.8534    -3.0005    -0.0052 N.3     
  12 C12            2.6804    -2.2105     1.2218 C.3     
  13 C13           -3.7126     2.0937    -0.0537 C.2     
  14 O14           -3.7265     3.3096    -0.0573 O.2     
  15 N15           -4.8719     1.4065    -0.0655 N.am    
  16 N16            1.1866     2.1110     0.0021 N.am    
  17 C17            1.2296     3.3600     0.5068 C.2     
  18 C18            2.5162     4.0733     0.5999 C.2     
  19 C19            2.7115     5.3279     1.0899 C.2     
  20 C20            4.0684    -3.6893     0.0101 C.ar    
  21 O21            0.2069     3.8985     0.8853 O.2     
  22 N22            3.7329     3.5991     0.2178 N.2     
  23 C23            4.6245     4.5142     0.4546 C.2     
  24 O24            4.0251     5.5869     0.9903 O.3     
  25 C25            4.0811    -5.0781     0.0141 C.ar    
  26 C26            5.2844    -5.7561     0.0288 C.ar    
  27 C27            6.4754    -5.0538     0.0400 C.ar    
  28 C28            6.4663    -3.6708     0.0360 C.ar    
  29 C29            5.2669    -2.9867     0.0156 C.ar    
  30 C30            2.7836    -5.8445     0.0030 C.3     
  31 C31           -6.1489     2.1244    -0.0825 C.3     
  32 C32           -7.3003     1.1169    -0.0933 C.3     
  33 C33           -8.6339     1.8667    -0.1110 C.3     
  34 C34           -9.7680     0.8743    -0.1216 C.2     
  35 C35            6.0999     4.3880     0.1749 C.3     
  36 C36            6.7245     5.3961    -0.7918 C.3     
  37 C37            7.0167     5.4912     0.7070 C.3     
  38 N38          -10.3680     0.3630     0.9262 N.2     
  39 O39          -10.3581     0.3517    -1.2008 O.3     
  40 N40          -11.2354    -0.4134    -0.8596 N.2     
  41 C41          -11.3080    -0.4651     0.4368 C.2     
  42 C42          -12.2693    -1.2994     1.2436 C.3     
  43 H43           -1.1986    -1.7819    -0.0142 H       
  44 H44           -3.3385    -0.5778    -0.0419 H       
  45 H45           -1.2340     3.1625    -0.0213 H       
  46 H46            1.1876    -0.9264     2.0974 H       
  47 H47            0.5278    -2.2984     1.1743 H       
  48 H48            0.5947    -2.2346    -1.2719 H       
  49 H49            1.3021    -0.8173    -2.0848 H       
  50 H50            2.8655    -2.7571    -2.0925 H       
  51 H51            3.5254    -1.3852    -1.1695 H       
  52 H52            3.4584    -1.4490     1.2767 H       
  53 H53            2.7510    -2.8662     2.0896 H       
  54 H54           -4.8609     0.4366    -0.0627 H       
  55 H55            1.9919     1.7035    -0.3533 H       
  56 H56            1.9539     5.9894     1.4836 H       
  57 H57            5.2951    -6.8361     0.0319 H       
  58 H58            7.4148    -5.5864     0.0521 H       
  59 H59            7.3983    -3.1252     0.0451 H       
  60 H60            5.2605    -1.9068     0.0122 H       
  61 H61            2.4812    -6.0321    -1.0273 H       
  62 H62            2.9180    -6.7941     0.5209 H       
  63 H63            2.0129    -5.2615     0.5073 H       
  64 H64           -6.2242     2.7528     0.8049 H       
  65 H65           -6.2033     2.7479    -0.9749 H       
  66 H66           -7.2249     0.4885    -0.9807 H       
  67 H67           -7.2459     0.4934     0.7991 H       
  68 H68           -8.7092     2.4951     0.7764 H       
  69 H69           -8.6883     2.4902    -1.0035 H       
  70 H70            6.4908     3.3705     0.1629 H       
  71 H71            7.5265     5.0419    -1.4395 H       
  72 H72            6.0682     6.1506    -1.2255 H       
  73 H73            6.5527     6.3084     1.2593 H       
  74 H74            8.0110     5.1997     1.0453 H       
  75 H75          -11.8242    -2.2739     1.4449 H       
  76 H76          -12.4840    -0.7964     2.1865 H       
  77 H77          -13.1948    -1.4314     0.6832 H       
@<TRIPOS>BOND
   1    1    2 ar
   2    1   16 1
   3    1    6 ar
   4    2    3 ar
   5    2    7 1
   6    3    4 ar
   7    3   43 1
   8    4    5 ar
   9    4   44 1
  10    5    6 ar
  11    5   13 1
  12    6   45 1
  13    7    8 1
  14    7    9 1
  15    8   12 1
  16    8   46 1
  17    8   47 1
  18    9   10 1
  19    9   48 1
  20    9   49 1
  21   10   11 1
  22   10   50 1
  23   10   51 1
  24   11   12 1
  25   11   20 1
  26   12   52 1
  27   12   53 1
  28   13   14 2
  29   13   15 am
  30   15   31 1
  31   15   54 1
  32   16   17 am
  33   16   55 1
  34   17   18 1
  35   17   21 2
  36   18   22 1
  37   18   19 2
  38   19   24 1
  39   19   56 1
  40   20   25 ar
  41   20   29 ar
  42   22   23 2
  43   23   24 1
  44   23   35 1
  45   25   26 ar
  46   25   30 1
  47   26   27 ar
  48   26   57 1
  49   27   28 ar
  50   27   58 1
  51   28   29 ar
  52   28   59 1
  53   29   60 1
  54   30   61 1
  55   30   62 1
  56   30   63 1
  57   31   32 1
  58   31   64 1
  59   31   65 1
  60   32   33 1
  61   32   66 1
  62   32   67 1
  63   33   34 1
  64   33   68 1
  65   33   69 1
  66   34   38 2
  67   34   39 1
  68   35   36 1
  69   35   37 1
  70   35   70 1
  71   36   37 1
  72   36   71 1
  73   36   72 1
  74   37   73 1
  75   37   74 1
  76   38   41 1
  77   39   40 1
  78   40   41 2
  79   41   42 1
  80   42   75 1
  81   42   76 1
  82   42   77 1

#	End of record

