#	Name: ASD01917686
#	Creating user name:	WinNT
#	Creation time:	15. 06. 2019 20:09

#	Modifying user name:	WinNT
#	Modification time:	15. 06. 2019 20:09

#	Program:	/corina/corina34_cracker 3.40 0067  02.08.2006

@<TRIPOS>MOLECULE
ASD01917686
  42   44    0    0    0
SMALL
NO_CHARGES


@<TRIPOS>ATOM
   1 C1            -0.0189     1.5420     0.0105 C.3     
   2 C2             0.0021    -0.0041     0.0020 C.3     
   3 C3             1.3442    -0.3602     0.6025 C.2     
   4 N4             2.1544     0.7123     0.5924 N.am    
   5 C5             1.4890     1.8776    -0.0021 C.3     
   6 C6             1.9726     2.0879    -1.4383 C.3     
   7 C7             1.7603     3.1276     0.8374 C.3     
   8 C8             3.5253     0.7176     1.1090 C.3     
   9 O9             1.6451    -1.4541     1.0311 O.2     
  10 C10           -1.1170    -0.5514     0.8500 C.ar    
  11 N11           -2.2636    -0.8877     0.2898 N.ar    
  12 N12           -3.2471    -1.3580     0.9673 N.ar    
  13 C13           -3.1739    -1.5377     2.2835 C.ar    
  14 C14           -1.9931    -1.2073     2.9618 C.ar    
  15 C15           -0.9376    -0.7060     2.2177 C.ar    
  16 C16           -4.2947    -2.0648     3.0023 C.1     
  17 C17           -5.2135    -2.4970     3.5916 C.1     
  18 C18           -6.3342    -3.0241     4.3104 C.ar    
  19 C19           -6.2555    -3.2122     5.6932 C.ar    
  20 C20           -7.3380    -3.7196     6.3796 C.ar    
  21 C21           -8.5028    -4.0431     5.7013 C.ar    
  22 C22           -8.5871    -3.8589     4.3299 C.ar    
  23 C23           -7.5133    -3.3473     3.6330 C.ar    
  24 F24           -9.5602    -4.5404     6.3794 F       
  25 H25           -0.5124     1.9304    -0.8804 H       
  26 H26           -0.4952     1.9207     0.9148 H       
  27 H27           -0.0716    -0.3810    -1.0181 H       
  28 H28            1.7647     1.1939    -2.0263 H       
  29 H29            1.4521     2.9397    -1.8759 H       
  30 H30            3.0456     2.2798    -1.4360 H       
  31 H31            2.8317     3.3271     0.8563 H       
  32 H32            1.2397     3.9793     0.3995 H       
  33 H33            1.4026     2.9669     1.8544 H       
  34 H34            3.7724    -0.2719     1.4936 H       
  35 H35            4.2150     0.9780     0.3061 H       
  36 H36            3.6084     1.4505     1.9114 H       
  37 H37           -1.9073    -1.3429     4.0298 H       
  38 H38           -0.0045    -0.4355     2.6896 H       
  39 H39           -5.3484    -2.9608     6.2227 H       
  40 H40           -7.2783    -3.8657     7.4480 H       
  41 H41           -9.4973    -4.1128     3.8070 H       
  42 H42           -7.5801    -3.2041     2.5646 H       
@<TRIPOS>BOND
   1    1    2 1
   2    1    5 1
   3    1   25 1
   4    1   26 1
   5    2    3 1
   6    2   10 1
   7    2   27 1
   8    3    4 am
   9    3    9 2
  10    4    5 1
  11    4    8 1
  12    5    6 1
  13    5    7 1
  14    6   28 1
  15    6   29 1
  16    6   30 1
  17    7   31 1
  18    7   32 1
  19    7   33 1
  20    8   34 1
  21    8   35 1
  22    8   36 1
  23   10   11 ar
  24   10   15 ar
  25   11   12 ar
  26   12   13 ar
  27   13   14 ar
  28   13   16 1
  29   14   15 ar
  30   14   37 1
  31   15   38 1
  32   16   17 3
  33   17   18 1
  34   18   19 ar
  35   18   23 ar
  36   19   20 ar
  37   19   39 1
  38   20   21 ar
  39   20   40 1
  40   21   22 ar
  41   21   24 1
  42   22   23 ar
  43   22   41 1
  44   23   42 1

#	End of record

