#	Name: ASD02408037
#	Creating user name:	WinNT
#	Creation time:	15. 06. 2019 20:21

#	Modifying user name:	WinNT
#	Modification time:	15. 06. 2019 20:21

#	Program:	/corina/corina34_cracker 3.40 0067  02.08.2006

@<TRIPOS>MOLECULE
ASD02408037
  40   42    0    0    0
SMALL
NO_CHARGES


@<TRIPOS>ATOM
   1 C1             0.5437     0.6192    -0.0811 C.ar    
   2 C2             0.8131    -0.7161    -0.3127 C.ar    
   3 C3             1.6681     1.6223    -0.0625 C.3     
   4 C4             1.8795     2.1658    -1.4521 C.2     
   5 N5             2.8456     3.0829    -1.6526 N.am    
   6 N6             1.1238     1.7284    -2.4224 N.2     
   7 C7             1.2665     2.1750    -3.6768 C.2     
   8 C8             2.2519     3.1364    -3.9559 C.2     
   9 C9             3.0627     3.5907    -2.8841 C.2     
  10 N10            0.4586     1.6980    -4.6796 N.pl3   
  11 O11            3.9327     4.4239    -3.0704 O.2     
  12 C12            1.0076     1.4159    -6.0129 C.3     
  13 C13           -0.9700     1.4541    -4.4377 C.3     
  14 C14           -1.3002     0.0145    -4.8443 C.3     
  15 C15           -0.8593    -0.2164    -6.2915 C.3     
  16 C16            0.6511    -0.0232    -6.3986 C.3     
  17 C17           -0.2204    -1.6376    -0.3298 C.ar    
  18 C18           -1.5226    -1.2198    -0.1146 C.ar    
  19 C19           -1.7897     0.1165     0.1169 C.ar    
  20 C20           -0.7579     1.0362     0.1280 C.ar    
  21 F21            0.0418    -2.9434    -0.5566 F       
  22 C22            2.4362     3.6391    -5.2840 C.1     
  23 N23            2.5823     4.0379    -6.3376 N.1     
  24 H24            1.8293    -1.0409    -0.4808 H       
  25 H25            1.4148     2.4397     0.6127 H       
  26 H26            2.5820     1.1374     0.2808 H       
  27 H27            3.3891     3.3807    -0.9064 H       
  28 H28            0.5773     2.1060    -6.7387 H       
  29 H29            2.0913     1.5313    -5.9938 H       
  30 H30           -1.1907     1.5947    -3.3796 H       
  31 H31           -1.5648     2.1474    -5.0324 H       
  32 H32           -0.7735    -0.6787    -4.1885 H       
  33 H33           -2.3745    -0.1498    -4.7606 H       
  34 H34           -1.1155    -1.2326    -6.5914 H       
  35 H35           -1.3679     0.4935    -6.9438 H       
  36 H36            0.9700    -0.2102    -7.4240 H       
  37 H37            1.1553    -0.7186    -5.7276 H       
  38 H38           -2.3294    -1.9375    -0.1280 H       
  39 H39           -2.8055     0.4427     0.2848 H       
  40 H40           -0.9675     2.0801     0.3093 H       
@<TRIPOS>BOND
   1    1    2 ar
   2    1    3 1
   3    1   20 ar
   4    2   17 ar
   5    2   24 1
   6    3    4 1
   7    3   25 1
   8    3   26 1
   9    4    5 1
  10    4    6 2
  11    5    9 am
  12    5   27 1
  13    6    7 1
  14    7    8 2
  15    7   10 1
  16    8    9 1
  17    8   22 1
  18    9   11 2
  19   10   12 1
  20   10   13 1
  21   12   16 1
  22   12   28 1
  23   12   29 1
  24   13   14 1
  25   13   30 1
  26   13   31 1
  27   14   15 1
  28   14   32 1
  29   14   33 1
  30   15   16 1
  31   15   34 1
  32   15   35 1
  33   16   36 1
  34   16   37 1
  35   17   18 ar
  36   17   21 1
  37   18   19 ar
  38   18   38 1
  39   19   20 ar
  40   19   39 1
  41   20   40 1
  42   22   23 3

#	End of record

