#	Name: ASD01913518
#	Creating user name:	WinNT
#	Creation time:	15. 06. 2019 20:01

#	Modifying user name:	WinNT
#	Modification time:	15. 06. 2019 20:01

#	Program:	/corina/corina34_cracker 3.40 0067  02.08.2006

@<TRIPOS>MOLECULE
ASD01913518
  54   58    0    0    0
SMALL
NO_CHARGES


@<TRIPOS>ATOM
   1 C1             0.0902     1.4549     0.3153 C.ar    
   2 C2             0.0490    -0.0130     0.1345 C.2     
   3 N3            -1.0124    -0.8155     0.3819 N.pl3   
   4 N4            -0.6029    -2.1224     0.0716 N.2     
   5 C5             0.6460    -2.0459    -0.3348 C.2     
   6 N6             1.0364    -0.7669    -0.3007 N.2     
   7 C7             1.4842    -3.1921    -0.7662 C.ar    
   8 C8             2.7989    -2.9808    -1.1767 C.ar    
   9 C9             3.5748    -4.0494    -1.5766 C.ar    
  10 C10            3.0483    -5.3309    -1.5707 C.ar    
  11 C11            1.7414    -5.5454    -1.1637 C.ar    
  12 C12            0.9605    -4.4833    -0.7564 C.ar    
  13 C13           -2.3282    -0.4024     0.8761 C.3     
  14 C14           -3.2439    -0.1406    -0.2917 C.2     
  15 N15           -4.5146     0.2539    -0.0765 N.am    
  16 O16           -2.8375    -0.2848    -1.4253 O.2     
  17 F17            3.8113    -6.3744    -1.9634 F       
  18 C18           -5.4193     0.5130    -1.2048 C.3     
  19 C19            1.3156     2.1114     0.4342 C.ar    
  20 C20           -1.0960     2.1880     0.3616 C.ar    
  21 C21           -1.0522     3.5561     0.5298 C.ar    
  22 C22            0.1673     4.2028     0.6528 C.ar    
  23 C23            1.3486     3.4799     0.6022 C.ar    
  24 F24            0.2050     5.5433     0.8170 F       
  25 C25           -6.0093     1.9183    -1.0511 C.3     
  26 C26           -6.6684     2.0429     0.3245 C.3     
  27 C27           -5.6160     1.8387     1.4167 C.3     
  28 C28           -5.0232     0.4270     1.2910 C.3     
  29 C29           -7.2796     3.4131     0.4661 C.2     
  30 O30           -6.6165     4.5747     0.3914 O.3     
  31 N31           -8.5406     3.6632     0.6758 N.2     
  32 C32           -8.7102     4.9955     0.7448 C.2     
  33 C33           -7.5087     5.5692     0.5673 C.2     
  34 H34            3.2098    -1.9821    -1.1823 H       
  35 H35            4.5939    -3.8865    -1.8949 H       
  36 H36            1.3347    -6.5459    -1.1613 H       
  37 H37           -0.0580    -4.6514    -0.4389 H       
  38 H38           -2.7481    -1.1940     1.4968 H       
  39 H39           -2.2249     0.5071     1.4679 H       
  40 H40           -4.8637     0.4502    -2.1405 H       
  41 H41           -6.2234    -0.2229    -1.2048 H       
  42 H42            2.2367     1.5488     0.3952 H       
  43 H43           -2.0469     1.6849     0.2655 H       
  44 H44           -1.9699     4.1245     0.5655 H       
  45 H45            2.2965     3.9884     0.6985 H       
  46 H46           -5.2143     2.6586    -1.1419 H       
  47 H47           -6.7547     2.0870    -1.8283 H       
  48 H48           -7.4466     1.2862     0.4241 H       
  49 H49           -4.8247     2.5797     1.3026 H       
  50 H50           -6.0815     1.9507     2.3959 H       
  51 H51           -5.7964    -0.3135     1.4955 H       
  52 H52           -4.2050     0.3097     2.0015 H       
  53 H53           -9.6446     5.5113     0.9099 H       
  54 H54           -7.2973     6.6283     0.5659 H       
@<TRIPOS>BOND
   1    1    2 1
   2    1   19 ar
   3    1   20 ar
   4    2    3 1
   5    2    6 2
   6    3    4 1
   7    3   13 1
   8    4    5 2
   9    5    6 1
  10    5    7 1
  11    7    8 ar
  12    7   12 ar
  13    8    9 ar
  14    8   34 1
  15    9   10 ar
  16    9   35 1
  17   10   11 ar
  18   10   17 1
  19   11   12 ar
  20   11   36 1
  21   12   37 1
  22   13   14 1
  23   13   38 1
  24   13   39 1
  25   14   15 am
  26   14   16 2
  27   15   18 1
  28   15   28 1
  29   18   25 1
  30   18   40 1
  31   18   41 1
  32   19   23 ar
  33   19   42 1
  34   20   21 ar
  35   20   43 1
  36   21   22 ar
  37   21   44 1
  38   22   23 ar
  39   22   24 1
  40   23   45 1
  41   25   26 1
  42   25   46 1
  43   25   47 1
  44   26   27 1
  45   26   29 1
  46   26   48 1
  47   27   28 1
  48   27   49 1
  49   27   50 1
  50   28   51 1
  51   28   52 1
  52   29   31 2
  53   29   30 1
  54   30   33 1
  55   31   32 1
  56   32   33 2
  57   32   53 1
  58   33   54 1

#	End of record

