#	Name: ASD09116031
#	Creating user name:	WinNT
#	Creation time:	15. 06. 2019 21:20

#	Modifying user name:	WinNT
#	Modification time:	15. 06. 2019 21:20

#	Program:	/corina/corina34_cracker 3.40 0067  02.08.2006

@<TRIPOS>MOLECULE
ASD09116031
  80   87    0    0    0
SMALL
NO_CHARGES


@<TRIPOS>ATOM
   1 C1            -0.1986     1.3918     0.3572 C.ar    
   2 C2            -0.1578     0.0003     0.3074 C.ar    
   3 C3            -1.3322    -0.6970     0.1608 C.ar    
   4 N4            -2.4698    -0.0060     0.0721 N.ar    
   5 N5            -2.5105     1.2764     0.1181 N.ar    
   6 C6            -1.4162     2.0288     0.2635 C.ar    
   7 N7            -1.3350    -2.0920     0.1055 N.pl3   
   8 N8            -0.2181    -2.9392     0.1859 N.2     
   9 C9            -0.6632    -4.1693     0.0921 C.2     
  10 N10           -1.9943    -4.1424    -0.0425 N.2     
  11 C11           -2.4157    -2.8959    -0.0304 C.2     
  12 N12            0.1243    -5.3204     0.1265 N.pl3   
  13 C13           -0.4796    -6.5805     0.1222 C.ar    
  14 C14            0.1562    -7.6548    -0.4879 C.ar    
  15 C15           -1.7146    -6.7625     0.7331 C.ar    
  16 C16           -2.3030    -8.0136     0.7227 C.ar    
  17 C17           -1.6752    -9.0706     0.1155 C.ar    
  18 C18           -0.4421    -8.8999    -0.4908 C.ar    
  19 N19           -3.7286    -2.4805    -0.1459 N.pl3   
  20 C20            1.1574     2.0319     0.5201 C.3     
  21 C21            1.7812     1.4667     1.8080 C.3     
  22 C22            1.8258    -0.0604     1.7539 C.3     
  23 C23            1.2339    -0.5687     0.4278 C.3     
  24 C24            2.0324     1.5614    -0.6548 C.3     
  25 C25            2.0774     0.0343    -0.7088 C.3     
  26 C26           -1.5087     3.5084     0.3120 C.ar    
  27 C27           -0.6099     4.2866    -0.4099 C.ar    
  28 C28           -0.7031     5.6770    -0.3593 C.ar    
  29 C29           -1.6976     6.2787     0.4154 C.ar    
  30 C30           -2.5859     5.4991     1.1290 C.ar    
  31 C31           -2.5009     4.1215     1.0772 C.ar    
  32 C32           -3.6500    -8.2088     1.3876 C.3     
  33 C33           -3.4482    -9.0400     2.6569 C.3     
  34 C34           -3.4658   -10.5228     2.3420 C.3     
  35 C35           -2.2809   -11.0050     1.5286 C.3     
  36 C36           -2.3258   -10.4386     0.1077 C.3     
  37 N37           -3.4962   -11.2676     3.6078 N.3     
  38 C38           -3.6344   -12.7155     3.3657 C.3     
  39 C39           -2.4391   -13.4099     4.0516 C.3     
  40 C40           -2.0013   -12.3757     5.1220 C.3     
  41 C41           -2.2619   -11.0365     4.3882 C.3     
  42 C42            0.2184     6.4858    -1.0990 C.1     
  43 N43            0.9495     7.1274    -1.6858 N.1     
  44 H44            1.0911    -5.2460     0.1534 H       
  45 H45            1.1177    -7.5163    -0.9599 H       
  46 H46           -2.2112    -5.9322     1.2131 H       
  47 H47            0.0480    -9.7359    -0.9677 H       
  48 H48           -4.4373    -3.1350    -0.2475 H       
  49 H49           -3.9415    -1.5343    -0.1254 H       
  50 H50            1.0791     3.1182     0.5625 H       
  51 H51            2.7945     1.8532     1.9174 H       
  52 H52            1.1847     1.7798     2.6649 H       
  53 H53            2.8600    -0.3939     1.8383 H       
  54 H54            1.2499    -0.4674     2.5851 H       
  55 H55            1.2198    -1.6581     0.3932 H       
  56 H56            1.6183     1.9430    -1.5880 H       
  57 H57            3.0438     1.9475    -0.5281 H       
  58 H58            3.1101    -0.2996    -0.6075 H       
  59 H59            1.6847    -0.3041    -1.6676 H       
  60 H60            0.1572     3.8159    -1.0069 H       
  61 H61           -1.7716     7.3554     0.4564 H       
  62 H62           -3.3530     5.9684     1.7269 H       
  63 H63           -3.1989     3.5175     1.6379 H       
  64 H64           -4.0737    -7.2390     1.6483 H       
  65 H65           -4.3210    -8.7344     0.7083 H       
  66 H66           -2.4896    -8.7807     3.1063 H       
  67 H67           -4.2468    -8.8144     3.3635 H       
  68 H68           -4.3785   -10.7482     1.7904 H       
  69 H69           -1.3591   -10.6834     2.0133 H       
  70 H70           -2.2986   -12.0938     1.4809 H       
  71 H71           -3.3620   -10.3494    -0.2186 H       
  72 H72           -1.7817   -11.0991    -0.5674 H       
  73 H73           -4.5690   -13.0757     3.7955 H       
  74 H74           -3.6148   -12.9159     2.2945 H       
  75 H75           -2.7528   -14.3419     4.5218 H       
  76 H76           -1.6355   -13.5888     3.3372 H       
  77 H77           -2.6171   -12.4564     6.0177 H       
  78 H78           -0.9447   -12.4886     5.3649 H       
  79 H79           -1.4312   -10.8002     3.7233 H       
  80 H80           -2.4133   -10.2324     5.1084 H       
@<TRIPOS>BOND
   1    1    2 ar
   2    1   20 1
   3    1    6 ar
   4    2    3 ar
   5    2   23 1
   6    3    4 ar
   7    3    7 1
   8    4    5 ar
   9    5    6 ar
  10    6   26 1
  11    7    8 1
  12    7   11 1
  13    8    9 2
  14    9   10 1
  15    9   12 1
  16   10   11 2
  17   11   19 1
  18   12   13 1
  19   12   44 1
  20   13   14 ar
  21   13   15 ar
  22   14   18 ar
  23   14   45 1
  24   15   16 ar
  25   15   46 1
  26   16   17 ar
  27   16   32 1
  28   17   18 ar
  29   17   36 1
  30   18   47 1
  31   19   48 1
  32   19   49 1
  33   20   21 1
  34   20   24 1
  35   20   50 1
  36   21   22 1
  37   21   51 1
  38   21   52 1
  39   22   23 1
  40   22   53 1
  41   22   54 1
  42   23   25 1
  43   23   55 1
  44   24   25 1
  45   24   56 1
  46   24   57 1
  47   25   58 1
  48   25   59 1
  49   26   27 ar
  50   26   31 ar
  51   27   28 ar
  52   27   60 1
  53   28   29 ar
  54   28   42 1
  55   29   30 ar
  56   29   61 1
  57   30   31 ar
  58   30   62 1
  59   31   63 1
  60   32   33 1
  61   32   64 1
  62   32   65 1
  63   33   34 1
  64   33   66 1
  65   33   67 1
  66   34   35 1
  67   34   37 1
  68   34   68 1
  69   35   36 1
  70   35   69 1
  71   35   70 1
  72   36   71 1
  73   36   72 1
  74   37   38 1
  75   37   41 1
  76   38   39 1
  77   38   73 1
  78   38   74 1
  79   39   40 1
  80   39   75 1
  81   39   76 1
  82   40   41 1
  83   40   77 1
  84   40   78 1
  85   41   79 1
  86   41   80 1
  87   42   43 3

#	End of record

