#	Name: ASD01900117
#	Creating user name:	WinNT
#	Creation time:	15. 06. 2019 19:51

#	Modifying user name:	WinNT
#	Modification time:	15. 06. 2019 19:51

#	Program:	/corina/corina34_cracker 3.40 0067  02.08.2006

@<TRIPOS>MOLECULE
ASD01900117
  37   39    0    0    0
SMALL
NO_CHARGES


@<TRIPOS>ATOM
   1 C1            -0.0168     1.3890     0.0097 C.ar    
   2 C2             0.0021    -0.0041     0.0020 C.ar    
   3 C3             1.2224    -0.6606    -0.0131 C.ar    
   4 C4             2.3820     0.0992    -0.0201 C.ar    
   5 C5             2.2884     1.4815    -0.0118 C.ar    
   6 N6             1.1169     2.0792     0.0026 N.ar    
   7 C7            -1.3131     2.1060     0.0197 C.2     
   8 O8            -2.3544     1.4790     0.0212 O.2     
   9 N9            -1.3379     3.4535     0.0271 N.am    
  10 N10           -4.0732     5.7272     0.0534 N.am    
  11 N11           -4.7377     4.4942     0.0499 N.2     
  12 C12           -3.8404     3.5422     0.0399 C.2     
  13 C13           -2.5688     4.1343     0.0366 C.2     
  14 C14           -2.7375     5.4816     0.0451 C.2     
  15 S15           -4.7895     7.2203     0.0593 S.o2    
  16 O16           -3.8372     8.1244    -0.4836 O.2     
  17 O17           -6.0907     7.0433    -0.4837 O.2     
  18 S18           -6.4282     7.3417     2.7356 S.3     
  19 C19           -5.7032     8.1402     4.0623 C.2     
  20 N20           -4.5390     8.5868     3.7306 N.2     
  21 C21           -4.1380     8.3603     2.4959 C.2     
  22 C22           -5.0126     7.6851     1.7442 C.2     
  23 C23           -2.8028     8.8251     1.9743 C.3     
  24 C24           -6.3329     8.2993     5.4222 C.3     
  25 H25           -0.9212    -0.5644     0.0082 H       
  26 H26            1.2690    -1.7395    -0.0190 H       
  27 H27            3.3489    -0.3818    -0.0315 H       
  28 H28            3.1898     2.0764    -0.0168 H       
  29 H29           -0.5069     3.9539     0.0259 H       
  30 H30           -4.0440     2.4815     0.0350 H       
  31 H31           -1.9523     6.2231     0.0452 H       
  32 H32           -2.0551     8.0513     2.1488 H       
  33 H33           -2.8790     9.0220     0.9049 H       
  34 H34           -2.5083     9.7381     2.4917 H       
  35 H35           -6.0592     7.4519     6.0507 H       
  36 H36           -5.9777     9.2219     5.8813 H       
  37 H37           -7.4172     8.3393     5.3181 H       
@<TRIPOS>BOND
   1    1    2 ar
   2    1    6 ar
   3    1    7 1
   4    2    3 ar
   5    2   25 1
   6    3    4 ar
   7    3   26 1
   8    4    5 ar
   9    4   27 1
  10    5    6 ar
  11    5   28 1
  12    7    8 2
  13    7    9 am
  14    9   13 1
  15    9   29 1
  16   10   11 1
  17   10   14 1
  18   10   15 am
  19   11   12 2
  20   12   13 1
  21   12   30 1
  22   13   14 2
  23   14   31 1
  24   15   16 2
  25   15   17 2
  26   15   22 1
  27   18   19 1
  28   18   22 1
  29   19   20 2
  30   19   24 1
  31   20   21 1
  32   21   22 2
  33   21   23 1
  34   23   32 1
  35   23   33 1
  36   23   34 1
  37   24   35 1
  38   24   36 1
  39   24   37 1

#	End of record

