#	Name: ASD06610085
#	Creating user name:	WinNT
#	Creation time:	15. 06. 2019 21:07

#	Modifying user name:	WinNT
#	Modification time:	15. 06. 2019 21:07

#	Program:	/corina/corina34_cracker 3.40 0067  02.08.2006

@<TRIPOS>MOLECULE
ASD06610085
 400  401    0    0    0
SMALL
NO_CHARGES


@<TRIPOS>ATOM
   1 C1            -0.1058     6.1226     7.3180 C.2     
   2 O2            -0.0253     4.9343     7.5466 O.2     
   3 N3             2.2580     6.1852     7.8634 N.am    
   4 C4             1.1125     6.9997     7.4501 C.3     
   5 C5            -3.4331     6.4340     5.8363 C.2     
   6 O6            -3.1605     7.4917     5.3092 O.2     
   7 N7            -1.2837     6.6579     6.9405 N.am    
   8 C8            -2.4667     5.8043     6.8061 C.3     
   9 C9            -3.1416     5.6496     8.1705 C.3     
  10 C10           -2.2201     4.9096     9.1057 C.2     
  11 C11           -1.8086     5.3379    10.3144 C.2     
  12 N12           -0.9889     4.3658    10.8210 N.pl3   
  13 C13           -0.9279     3.3766     9.9036 C.2     
  14 N14           -1.6707     3.7066     8.8826 N.2     
  15 C15           -6.9360     5.9513     4.9092 C.2     
  16 O16           -7.1276     5.1727     5.8191 O.2     
  17 N17           -4.6003     5.8218     5.5547 N.am    
  18 C18           -5.5397     6.4340     4.6118 C.3     
  19 C19           -5.1576     6.0408     3.1834 C.3     
  20 C20           -3.8121     6.6283     2.8436 C.ar    
  21 C21           -2.6593     5.9107     3.1027 C.ar    
  22 C22           -1.4250     6.4496     2.7910 C.ar    
  23 C23           -1.3436     7.7058     2.2199 C.ar    
  24 C24           -2.4964     8.4230     1.9600 C.ar    
  25 C25           -3.7309     7.8823     2.2677 C.ar    
  26 C26          -10.1700     6.0111     3.2060 C.2     
  27 O27           -9.6832     6.4297     2.1771 O.2     
  28 N28           -7.9719     6.3850     4.1640 N.am    
  29 C29           -9.3293     5.9158     4.4531 C.3     
  30 C30           -9.9460     6.7843     5.5515 C.3     
  31 C31           -9.1652     6.5912     6.8530 C.3     
  32 C32           -9.7819     7.4596     7.9514 C.3     
  33 N33           -9.0343     7.2747     9.1976 N.pl3   
  34 C34           -9.4073     7.9579    10.3308 C.2     
  35 N35           -8.7421     7.7933    11.4396 N.2     
  36 N36          -10.4819     8.8146    10.2946 N.pl3   
  37 C37          -13.7327     5.8478     2.4035 C.2     
  38 O38          -14.0536     5.8578     3.5730 O.2     
  39 N39          -11.4628     5.6312     3.2342 N.am    
  40 C40          -12.2801     5.7238     2.0218 C.3     
  41 C41          -12.0809     4.4651     1.1751 C.3     
  42 C42          -10.6332     4.4048     0.6837 C.3     
  43 C43          -10.4340     3.1461    -0.1630 C.3     
  44 C44           -8.9864     3.0858    -0.6544 C.3     
  45 N45           -8.7951     1.8773    -1.4674 N.3     
  46 C46          -16.9480     5.5604     0.6883 C.2     
  47 O47          -16.4327     5.1393    -0.3256 O.2     
  48 N48          -14.6751     5.9476     1.4452 N.am    
  49 C49          -16.0872     6.0681     1.8162 C.3     
  50 C50          -16.4190     7.5364     2.0899 C.3     
  51 C51          -15.6365     8.0166     3.3138 C.3     
  52 C52          -15.9633     9.4628     3.5834 C.2     
  53 O53          -16.7422    10.0493     2.8698 O.2     
  54 O54          -15.3892    10.0994     4.6163 O.3     
  55 C55          -20.4859     5.7288    -0.2163 C.2     
  56 O56          -20.7309     6.5247     0.6655 O.2     
  57 N57          -18.2905     5.5743     0.8063 N.am    
  58 C58          -19.1274     5.0806    -0.2901 C.3     
  59 C59          -19.2794     3.5628    -0.1722 C.3     
  60 C60          -17.9165     2.8967    -0.3718 C.3     
  61 C61          -18.0685     1.3789    -0.2539 C.3     
  62 N62          -16.7635     0.7411    -0.4449 N.pl3   
  63 C63          -16.6516    -0.6277    -0.3823 C.2     
  64 N64          -15.4906    -1.1952    -0.5523 N.2     
  65 N65          -17.7644    -1.3981    -0.1405 N.pl3   
  66 C66          -23.7826     4.9604    -1.4940 C.2     
  67 O67          -23.4024     3.8989    -1.9407 O.2     
  68 N68          -21.4285     5.4240    -1.1300 N.am    
  69 C69          -22.7811     5.9711    -0.9976 C.3     
  70 C70          -22.8963     7.2524    -1.8257 C.3     
  71 C71          -22.4049     6.9852    -3.2498 C.3     
  72 C72          -23.3705     6.0279    -3.9513 C.3     
  73 C73          -22.0415     8.3499    -1.1887 C.3     
  74 C74          -27.3265     5.0344    -2.3876 C.2     
  75 O75          -27.4058     6.2302    -2.2013 O.2     
  76 N76          -25.1008     5.2361    -1.4416 N.am    
  77 C77          -26.0692     4.2947    -2.0093 C.3     
  78 C78          -26.4024     3.2191    -0.9734 C.3     
  79 C79          -25.1520     2.3870    -0.6819 C.3     
  80 C80          -25.4801     1.3276     0.3384 C.2     
  81 O81          -26.5993     1.2465     0.7865 O.2     
  82 O82          -24.5291     0.4742     0.7494 O.3     
  83 C83          -30.5812     4.1178    -3.8845 C.2     
  84 O84          -30.2980     2.9427    -3.9837 O.2     
  85 N85          -28.3628     4.3671    -2.9328 N.am    
  86 C86          -29.5850     5.0862    -3.3006 C.3     
  87 C87          -33.6975     4.4289    -5.7869 C.2     
  88 O88          -33.8171     5.6226    -5.6088 O.2     
  89 N89          -31.7867     4.5576    -4.2965 N.am    
  90 C90          -32.7126     3.6392    -4.9638 C.3     
  91 C91          -33.4662     2.8217    -3.9127 C.3     
  92 C92          -34.4405     1.8696    -4.6093 C.3     
  93 C93          -33.6530     0.8127    -5.3863 C.3     
  94 C94          -35.3194     1.1831    -3.5619 C.3     
  95 C95          -36.5200     3.6250    -7.9664 C.2     
  96 O96          -36.4537     2.4417    -7.7091 O.2     
  97 N97          -34.4453     3.8086    -6.7210 N.am    
  98 C98          -35.4476     4.5638    -7.4769 C.3     
  99 C99          -34.7787     5.2425    -8.6740 C.3     
 100 C100         -33.7774     6.2861    -8.1746 C.3     
 101 C101         -33.1086     6.9648    -9.3717 C.3     
 102 N102         -32.1498     7.9640    -8.8936 N.pl3   
 103 C103         -31.4234     8.7060    -9.7946 C.2     
 104 N104         -31.5877     8.5204   -11.0743 N.2     
 105 N105         -30.5236     9.6437    -9.3459 N.pl3   
 106 C106         -39.2519     3.7702   -10.3910 C.2     
 107 O107         -38.8850     4.8420   -10.8241 O.2     
 108 N108         -37.5528     4.1004    -8.6901 N.am    
 109 C109         -38.5954     3.1878    -9.1659 C.3     
 110 C110         -39.6439     2.9947    -8.0685 C.3     
 111 C111         -39.0045     2.2895    -6.8707 C.3     
 112 C112         -40.0530     2.0964    -5.7733 C.3     
 113 C113         -39.4136     1.3912    -4.5755 C.3     
 114 N114         -40.4203     1.2058    -3.5218 N.3     
 115 C115         -42.2798     3.1117   -12.3304 C.2     
 116 O116         -42.6996     2.3216   -11.5116 O.2     
 117 N117         -40.2467     3.0999   -11.0055 N.am    
 118 C118         -40.8849     3.6660   -12.1965 C.3     
 119 C119         -40.0683     3.2972   -13.4367 C.3     
 120 C120         -38.6934     3.9638   -13.3588 C.3     
 121 C121         -37.8768     3.5950   -14.5990 C.3     
 122 N122         -36.5602     4.2332   -14.5244 N.pl3   
 123 C123         -35.6468     4.0449   -15.5345 C.2     
 124 N124         -34.4754     4.6127   -15.4681 N.2     
 125 N125         -35.9689     3.2576   -16.6146 N.pl3   
 126 C126         -44.8433     3.0111   -14.9346 C.2     
 127 O127         -44.0886     3.4571   -15.7727 O.2     
 128 N128         -43.0609     3.4941   -13.3600 N.am    
 129 C129         -44.4170     2.9552   -13.4902 C.3     
 130 C130         -45.3802     3.7877   -12.6416 C.3     
 131 C131         -45.0226     3.6309   -11.1623 C.3     
 132 C132         -45.9859     4.4633   -10.3137 C.3     
 133 N133         -45.6434     4.3132    -8.8972 N.pl3   
 134 C134         -46.3762     4.9730    -7.9392 C.2     
 135 N135         -47.3756     5.7321    -8.2911 N.2     
 136 N136         -46.0549     4.8320    -6.6099 N.pl3   
 137 C137         -47.9817     2.6681   -16.7774 C.2     
 138 O138         -48.6425     2.6582   -15.7605 O.2     
 139 N139         -46.0631     2.5654   -15.2949 N.am    
 140 C140         -46.4775     2.6197   -16.6990 C.3     
 141 C141         -45.9685     1.3754   -17.4295 C.3     
 142 C142         -44.4389     1.3907   -17.4580 C.3     
 143 C143         -43.9299     0.1464   -18.1884 C.3     
 144 N144         -42.4652     0.1611   -18.2158 N.pl3   
 145 C145         -41.7787    -0.8633   -18.8236 C.2     
 146 N146         -40.4756    -0.8503   -18.8479 N.2     
 147 N147         -42.4668    -1.9014   -19.4059 N.pl3   
 148 C148         -50.5065     2.2217   -19.3830 C.2     
 149 O149         -49.6876     1.8306   -20.1875 O.2     
 150 N150         -48.5925     2.7224   -17.9775 N.am    
 151 C151         -50.0548     2.7695   -18.0537 C.3     
 152 C152         -50.5265     4.2181   -17.9121 C.3     
 153 C153         -50.1772     4.7339   -16.5147 C.3     
 154 C154         -50.5355     6.2180   -16.4146 C.3     
 155 C155         -50.9680     3.9466   -15.4680 C.3     
 156 C156         -53.6068     2.2116   -21.3197 C.2     
 157 O157         -54.1470     2.9913   -20.5639 O.2     
 158 N158         -51.8205     2.1665   -19.6777 N.am    
 159 C159         -52.2595     1.6340   -20.9700 C.3     
 160 C160         -52.3646     0.1101   -20.8845 C.3     
 161 C161         -50.9741    -0.4848   -20.6529 C.3     
 162 C162         -51.0942    -1.9956   -20.4432 C.3     
 163 C163         -50.0915    -0.2077   -21.8715 C.3     
 164 C164         -56.6041     1.6008   -22.1628 C.2     
 165 O165         -56.3119     0.6438   -21.4855 O.2     
 166 N166         -54.2114     1.8617   -22.4723 N.am    
 167 C167         -55.5211     2.4232   -22.8123 C.3     
 168 C168         -55.7063     2.4024   -24.3309 C.3     
 169 O169         -55.7452     1.0489   -24.7875 O.3     
 170 O170         -57.8934     1.9314   -22.3368 O.3     
 171 C171           3.4631     6.7605     8.0457 C.2     
 172 O172           3.5993     7.9524     7.8675 O.2     
 173 C173          21.6741     6.2017    12.4315 C.3     
 174 C174          20.4778     7.0523    11.9998 C.3     
 175 C175          19.2409     6.1618    11.8657 C.3     
 176 C176          18.0446     7.0124    11.4340 C.3     
 177 C177          16.8076     6.1220    11.2999 C.3     
 178 C178          15.6114     6.9725    10.8682 C.3     
 179 C179          14.3744     6.0821    10.7341 C.3     
 180 C180          13.1781     6.9327    10.3024 C.3     
 181 C181          11.9412     6.0423    10.1683 C.3     
 182 C182          10.7449     6.8928     9.7366 C.3     
 183 C183           9.5079     6.0024     9.6025 C.3     
 184 C184           8.3116     6.8530     9.1708 C.3     
 185 C185           7.0747     5.9626     9.0367 C.3     
 186 C186           5.8784     6.8131     8.6050 C.3     
 187 C187           4.6414     5.9227     8.4709 C.3     
 188 H188           2.1491     5.2320     8.0059 H       
 189 H189           1.3280     7.4692     6.4904 H       
 190 H190           0.9260     7.7704     8.1980 H       
 191 H191          -1.3482     7.6083     6.7576 H       
 192 H192          -2.1672     4.8239     6.4357 H       
 193 H193          -3.3611     6.6351     8.5811 H       
 194 H194          -4.0693     5.0890     8.0556 H       
 195 H195          -2.0741     6.2695    10.7920 H       
 196 H196          -0.5363     4.3840    11.6787 H       
 197 H197          -0.3616     2.4621    10.0006 H       
 198 H198          -4.8183     4.9758     5.9763 H       
 199 H199          -5.5010     7.5186     4.7129 H       
 200 H200          -5.1099     4.9546     3.1060 H       
 201 H201          -5.9064     6.4221     2.4891 H       
 202 H202          -2.7229     4.9293     3.5489 H       
 203 H203          -0.5244     5.8893     2.9941 H       
 204 H204          -0.3793     8.1271     1.9771 H       
 205 H205          -2.4328     9.4046     1.5141 H       
 206 H206          -4.6318     8.4411     2.0612 H       
 207 H207          -7.8187     7.0078     3.4363 H       
 208 H208          -9.2919     4.8791     4.7877 H       
 209 H209          -9.9025     7.8319     5.2537 H       
 210 H210         -10.9852     6.4930     5.7045 H       
 211 H211          -9.2088     5.5435     7.1508 H       
 212 H212          -8.1261     6.8825     6.7000 H       
 213 H213          -9.7383     8.5072     7.6536 H       
 214 H214         -10.8210     7.1683     8.1044 H       
 215 H215          -8.2761     6.6702     9.2232 H       
 216 H216          -9.0053     8.2753    12.2392 H       
 217 H217         -10.9769     8.9370     9.4694 H       
 218 H218         -10.7451     9.2966    11.0941 H       
 219 H219         -11.8521     5.2964     4.0571 H       
 220 H220         -11.9794     6.5997     1.4470 H       
 221 H221         -12.2968     3.5834     1.7785 H       
 222 H222         -12.7545     4.4931     0.3186 H       
 223 H223         -10.4173     5.2865     0.0803 H       
 224 H224          -9.9596     4.3769     1.5402 H       
 225 H225         -10.6499     2.2644     0.4404 H       
 226 H226         -11.1076     3.1741    -1.0195 H       
 227 H227          -8.7705     3.9676    -1.2578 H       
 228 H228          -8.3128     3.0579     0.2021 H       
 229 H229          -9.4528     1.8481    -2.2321 H       
 230 H230          -7.8460     1.8145    -1.8041 H       
 231 H231         -14.4183     5.9396     0.5098 H       
 232 H232         -16.2787     5.4791     2.7131 H       
 233 H233         -16.1442     8.1386     1.2238 H       
 234 H234         -17.4876     7.6383     2.2789 H       
 235 H235         -15.9112     7.4145     4.1799 H       
 236 H236         -14.5679     7.9147     3.1248 H       
 237 H237         -15.6299    11.0264     4.7493 H       
 238 H238         -18.7026     5.9111     1.6173 H       
 239 H239         -18.6592     5.3259    -1.2434 H       
 240 H240         -19.6652     3.3119     0.8159 H       
 241 H241         -19.9728     3.2068    -0.9342 H       
 242 H242         -17.5307     3.1476    -1.3599 H       
 243 H243         -17.2231     3.2527     0.3902 H       
 244 H244         -18.4543     1.1280     0.7342 H       
 245 H245         -18.7619     1.0229    -1.0158 H       
 246 H246         -15.9784     1.2846    -0.6156 H       
 247 H247         -15.4116    -2.1610    -0.5082 H       
 248 H248         -18.6285    -0.9758    -0.0140 H       
 249 H249         -17.6855    -2.3638    -0.0963 H       
 250 H250         -21.2114     4.8424    -1.8754 H       
 251 H251         -22.9809     6.1963     0.0500 H       
 252 H252         -23.9374     7.5738    -1.8549 H       
 253 H253         -22.3600     7.9245    -3.8009 H       
 254 H254         -21.4117     6.5375    -3.2134 H       
 255 H255         -24.3918     6.3894    -3.8313 H       
 256 H256         -23.1252     5.9773    -5.0121 H       
 257 H257         -23.2823     5.0351    -3.5102 H       
 258 H258         -20.9891     8.0730    -1.2510 H       
 259 H259         -22.2021     9.2889    -1.7184 H       
 260 H260         -22.3243     8.4697    -0.1429 H       
 261 H261         -25.4084     6.0578    -1.0280 H       
 262 H262         -25.6430     3.8255    -2.8960 H       
 263 H263         -26.7453     3.6939    -0.0541 H       
 264 H264         -27.1877     2.5709    -1.3623 H       
 265 H265         -24.8091     1.9122    -1.6012 H       
 266 H266         -24.3667     3.0352    -0.2930 H       
 267 H267         -24.7872    -0.1881     1.4051 H       
 268 H268         -28.2993     3.4107    -3.0818 H       
 269 H269         -29.3477     5.8524    -4.0385 H       
 270 H270         -30.0113     5.5554    -2.4138 H       
 271 H271         -32.0413     5.4823    -4.1511 H       
 272 H272         -32.1524     2.9671    -5.6138 H       
 273 H273         -32.7544     2.2450    -3.3221 H       
 274 H274         -34.0208     3.4942    -3.2583 H       
 275 H275         -35.0694     2.4334    -5.2983 H       
 276 H276         -33.0778     0.2031    -4.6895 H       
 277 H277         -34.3451     0.1774    -5.9391 H       
 278 H278         -32.9751     1.3046    -6.0839 H       
 279 H279         -35.8804     1.9361    -3.0084 H       
 280 H280         -36.0135     0.5048    -4.0582 H       
 281 H281         -34.6905     0.6193    -2.8730 H       
 282 H282         -34.3200     2.8622    -6.8927 H       
 283 H283         -35.8940     5.3211    -6.8326 H       
 284 H284         -34.2568     4.4946    -9.2708 H       
 285 H285         -35.5375     5.7306    -9.2856 H       
 286 H286         -34.2994     7.0340    -7.5778 H       
 287 H287         -33.0186     5.7980    -7.5630 H       
 288 H288         -32.5866     6.2169    -9.9685 H       
 289 H289         -33.8674     7.4529    -9.9833 H       
 290 H290         -32.0275     8.1021    -7.9413 H       
 291 H291         -31.0752     9.0439   -11.7100 H       
 292 H292         -30.4013     9.7818    -8.3936 H       
 293 H293         -30.0111    10.1672    -9.9817 H       
 294 H294         -37.6059     5.0469    -8.8959 H       
 295 H295         -38.1493     2.2252    -9.4157 H       
 296 H296         -40.0263     3.9665    -7.7564 H       
 297 H297         -40.4639     2.3877    -8.4522 H       
 298 H298         -38.6221     1.3177    -7.1829 H       
 299 H299         -38.1845     2.8965    -6.4870 H       
 300 H300         -40.4354     3.0682    -5.4611 H       
 301 H301         -40.8730     1.4894    -6.1570 H       
 302 H302         -39.0312     0.4194    -4.8876 H       
 303 H303         -38.5936     1.9982    -4.1917 H       
 304 H304         -40.0223     0.7417    -2.7191 H       
 305 H305         -40.8366     2.0869    -3.2604 H       
 306 H306         -40.5401     2.2427   -10.6592 H       
 307 H307         -40.9325     4.7509   -12.1022 H       
 308 H308         -39.9455     2.2151   -13.4823 H       
 309 H309         -40.5890     3.6418   -14.3302 H       
 310 H310         -38.8162     5.0459   -13.3132 H       
 311 H311         -38.1727     3.6193   -12.4653 H       
 312 H312         -37.7540     2.5129   -14.6446 H       
 313 H313         -38.3975     3.9395   -15.4925 H       
 314 H314         -36.3330     4.7886   -13.7623 H       
 315 H315         -33.8310     4.4798   -16.1808 H       
 316 H316         -36.8406     2.8351   -16.6640 H       
 317 H317         -35.3244     3.1248   -17.3273 H       
 318 H318         -42.7252     4.1260   -14.0149 H       
 319 H319         -44.4314     1.9208   -13.1469 H       
 320 H320         -45.3004     4.8371   -12.9254 H       
 321 H321         -46.4010     3.4431   -12.8072 H       
 322 H322         -45.1024     2.5815   -10.8785 H       
 323 H323         -44.0019     3.9754   -10.9967 H       
 324 H324         -45.9061     5.5127   -10.5975 H       
 325 H325         -47.0066     4.1188   -10.4793 H       
 326 H326         -44.8997     3.7482    -8.6353 H       
 327 H327         -47.8925     6.1977    -7.6152 H       
 328 H328         -45.3112     4.2671    -6.3479 H       
 329 H329         -46.5719     5.2976    -5.9339 H       
 330 H330         -46.6667     2.2087   -14.6246 H       
 331 H331         -46.0604     3.5116   -17.1667 H       
 332 H332         -46.3133     0.4820   -16.9088 H       
 333 H333         -46.3509     1.3714   -18.4502 H       
 334 H334         -44.0941     2.2841   -17.9786 H       
 335 H335         -44.0565     1.3947   -16.4373 H       
 336 H336         -44.2747    -0.7470   -17.6678 H       
 337 H337         -44.3123     0.1424   -19.2092 H       
 338 H338         -41.9798     0.8935   -17.8049 H       
 339 H339         -39.9913    -1.5730   -19.2768 H       
 340 H340         -43.4365    -1.9112   -19.3878 H       
 341 H341         -41.9824    -2.6242   -19.8348 H       
 342 H342         -48.0640     2.7304   -18.7908 H       
 343 H343         -50.4800     2.1687   -17.2497 H       
 344 H344         -50.0322     4.8360   -18.6617 H       
 345 H345         -51.6058     4.2645   -18.0573 H       
 346 H346         -49.1096     4.6051   -16.3362 H       
 347 H347         -51.6030     6.3469   -16.5931 H       
 348 H348         -50.2866     6.5855   -15.4191 H       
 349 H349         -49.9721     6.7789   -17.1604 H       
 350 H350         -50.7127     2.8893   -15.5393 H       
 351 H351         -50.7191     4.3141   -14.4724 H       
 352 H352         -52.0355     4.0755   -15.6465 H       
 353 H353         -52.4754     2.4794   -19.0343 H       
 354 H354         -51.5369     1.9058   -21.7394 H       
 355 H355         -53.0191    -0.1631   -20.0568 H       
 356 H356         -52.7755    -0.2787   -21.8162 H       
 357 H357         -50.5268    -0.0297   -19.7692 H       
 358 H358         -51.5416    -2.4507   -21.3268 H       
 359 H359         -50.1036    -2.4194   -20.2782 H       
 360 H360         -51.7231    -2.1930   -19.5750 H       
 361 H361         -50.0059     0.8686   -22.0209 H       
 362 H362         -49.1009    -0.6315   -21.7066 H       
 363 H363         -50.5388    -0.6628   -22.7552 H       
 364 H364         -53.7793     1.2382   -23.0768 H       
 365 H365         -55.5803     3.4506   -22.4530 H       
 366 H366         -56.6408     2.9002   -24.5898 H       
 367 H367         -54.8741     2.9223   -24.8055 H       
 368 H368         -55.8608     0.9595   -25.7434 H       
 369 H369         -58.5523     1.3740   -21.9005 H       
 370 H370          22.5554     6.8360    12.5271 H       
 371 H371          21.4586     5.7321    13.3913 H       
 372 H372          21.8606     5.4309    11.6836 H       
 373 H373          20.2913     7.8230    12.7477 H       
 374 H374          20.6933     7.5218    11.0401 H       
 375 H375          19.4274     5.3911    11.1178 H       
 376 H376          19.0254     5.6923    12.8255 H       
 377 H377          17.8581     7.7831    12.1819 H       
 378 H378          18.2601     7.4820    10.4743 H       
 379 H379          16.9942     5.3512    10.5520 H       
 380 H380          16.5922     5.6524    12.2596 H       
 381 H381          15.4248     7.7433    11.6161 H       
 382 H382          15.8268     7.4421     9.9084 H       
 383 H383          14.5609     5.3114     9.9862 H       
 384 H384          14.1589     5.6126    11.6938 H       
 385 H385          12.9916     7.7034    11.0503 H       
 386 H386          13.3936     7.4023     9.3426 H       
 387 H387          12.1277     5.2715     9.4204 H       
 388 H388          11.7257     5.5727    11.1280 H       
 389 H389          10.5583     7.6636    10.4845 H       
 390 H390          10.9603     7.3624     8.7768 H       
 391 H391           9.6944     5.2317     8.8546 H       
 392 H392           9.2924     5.5329    10.5622 H       
 393 H393           8.1251     7.6237     9.9187 H       
 394 H394           8.5271     7.3226     8.2110 H       
 395 H395           7.2612     5.1918     8.2888 H       
 396 H396           6.8592     5.4930     9.9964 H       
 397 H397           5.6919     7.5839     9.3528 H       
 398 H398           6.0939     7.2827     7.6452 H       
 399 H399           4.4259     5.4532     9.4306 H       
 400 H400           4.8279     5.1520     7.7230 H       
@<TRIPOS>BOND
   1    1    2 2
   2    1    4 1
   3    1    7 am
   4    3    4 1
   5    3  171 am
   6    3  188 1
   7    4  189 1
   8    4  190 1
   9    5    6 2
  10    5    8 1
  11    5   17 am
  12    7    8 1
  13    7  191 1
  14    8    9 1
  15    8  192 1
  16    9   10 1
  17    9  193 1
  18    9  194 1
  19   10   11 2
  20   10   14 1
  21   11   12 1
  22   11  195 1
  23   12   13 1
  24   12  196 1
  25   13   14 2
  26   13  197 1
  27   15   16 2
  28   15   18 1
  29   15   28 am
  30   17   18 1
  31   17  198 1
  32   18   19 1
  33   18  199 1
  34   19   20 1
  35   19  200 1
  36   19  201 1
  37   20   21 ar
  38   20   25 ar
  39   21   22 ar
  40   21  202 1
  41   22   23 ar
  42   22  203 1
  43   23   24 ar
  44   23  204 1
  45   24   25 ar
  46   24  205 1
  47   25  206 1
  48   26   27 2
  49   26   29 1
  50   26   39 am
  51   28   29 1
  52   28  207 1
  53   29   30 1
  54   29  208 1
  55   30   31 1
  56   30  209 1
  57   30  210 1
  58   31   32 1
  59   31  211 1
  60   31  212 1
  61   32   33 1
  62   32  213 1
  63   32  214 1
  64   33   34 1
  65   33  215 1
  66   34   35 2
  67   34   36 1
  68   35  216 1
  69   36  217 1
  70   36  218 1
  71   37   38 2
  72   37   40 1
  73   37   48 am
  74   39   40 1
  75   39  219 1
  76   40   41 1
  77   40  220 1
  78   41   42 1
  79   41  221 1
  80   41  222 1
  81   42   43 1
  82   42  223 1
  83   42  224 1
  84   43   44 1
  85   43  225 1
  86   43  226 1
  87   44   45 1
  88   44  227 1
  89   44  228 1
  90   45  229 1
  91   45  230 1
  92   46   47 2
  93   46   49 1
  94   46   57 am
  95   48   49 1
  96   48  231 1
  97   49   50 1
  98   49  232 1
  99   50   51 1
 100   50  233 1
 101   50  234 1
 102   51   52 1
 103   51  235 1
 104   51  236 1
 105   52   53 2
 106   52   54 1
 107   54  237 1
 108   55   56 2
 109   55   58 1
 110   55   68 am
 111   57   58 1
 112   57  238 1
 113   58   59 1
 114   58  239 1
 115   59   60 1
 116   59  240 1
 117   59  241 1
 118   60   61 1
 119   60  242 1
 120   60  243 1
 121   61   62 1
 122   61  244 1
 123   61  245 1
 124   62   63 1
 125   62  246 1
 126   63   64 2
 127   63   65 1
 128   64  247 1
 129   65  248 1
 130   65  249 1
 131   66   67 2
 132   66   69 1
 133   66   76 am
 134   68   69 1
 135   68  250 1
 136   69   70 1
 137   69  251 1
 138   70   71 1
 139   70   73 1
 140   70  252 1
 141   71   72 1
 142   71  253 1
 143   71  254 1
 144   72  255 1
 145   72  256 1
 146   72  257 1
 147   73  258 1
 148   73  259 1
 149   73  260 1
 150   74   75 2
 151   74   77 1
 152   74   85 am
 153   76   77 1
 154   76  261 1
 155   77   78 1
 156   77  262 1
 157   78   79 1
 158   78  263 1
 159   78  264 1
 160   79   80 1
 161   79  265 1
 162   79  266 1
 163   80   81 2
 164   80   82 1
 165   82  267 1
 166   83   84 2
 167   83   86 1
 168   83   89 am
 169   85   86 1
 170   85  268 1
 171   86  269 1
 172   86  270 1
 173   87   88 2
 174   87   90 1
 175   87   97 am
 176   89   90 1
 177   89  271 1
 178   90   91 1
 179   90  272 1
 180   91   92 1
 181   91  273 1
 182   91  274 1
 183   92   93 1
 184   92   94 1
 185   92  275 1
 186   93  276 1
 187   93  277 1
 188   93  278 1
 189   94  279 1
 190   94  280 1
 191   94  281 1
 192   95   96 2
 193   95   98 1
 194   95  108 am
 195   97   98 1
 196   97  282 1
 197   98   99 1
 198   98  283 1
 199   99  100 1
 200   99  284 1
 201   99  285 1
 202  100  101 1
 203  100  286 1
 204  100  287 1
 205  101  102 1
 206  101  288 1
 207  101  289 1
 208  102  103 1
 209  102  290 1
 210  103  104 2
 211  103  105 1
 212  104  291 1
 213  105  292 1
 214  105  293 1
 215  106  107 2
 216  106  109 1
 217  106  117 am
 218  108  109 1
 219  108  294 1
 220  109  110 1
 221  109  295 1
 222  110  111 1
 223  110  296 1
 224  110  297 1
 225  111  112 1
 226  111  298 1
 227  111  299 1
 228  112  113 1
 229  112  300 1
 230  112  301 1
 231  113  114 1
 232  113  302 1
 233  113  303 1
 234  114  304 1
 235  114  305 1
 236  115  116 2
 237  115  118 1
 238  115  128 am
 239  117  118 1
 240  117  306 1
 241  118  119 1
 242  118  307 1
 243  119  120 1
 244  119  308 1
 245  119  309 1
 246  120  121 1
 247  120  310 1
 248  120  311 1
 249  121  122 1
 250  121  312 1
 251  121  313 1
 252  122  123 1
 253  122  314 1
 254  123  124 2
 255  123  125 1
 256  124  315 1
 257  125  316 1
 258  125  317 1
 259  126  127 2
 260  126  129 1
 261  126  139 am
 262  128  129 1
 263  128  318 1
 264  129  130 1
 265  129  319 1
 266  130  131 1
 267  130  320 1
 268  130  321 1
 269  131  132 1
 270  131  322 1
 271  131  323 1
 272  132  133 1
 273  132  324 1
 274  132  325 1
 275  133  134 1
 276  133  326 1
 277  134  135 2
 278  134  136 1
 279  135  327 1
 280  136  328 1
 281  136  329 1
 282  137  138 2
 283  137  140 1
 284  137  150 am
 285  139  140 1
 286  139  330 1
 287  140  141 1
 288  140  331 1
 289  141  142 1
 290  141  332 1
 291  141  333 1
 292  142  143 1
 293  142  334 1
 294  142  335 1
 295  143  144 1
 296  143  336 1
 297  143  337 1
 298  144  145 1
 299  144  338 1
 300  145  146 2
 301  145  147 1
 302  146  339 1
 303  147  340 1
 304  147  341 1
 305  148  149 2
 306  148  151 1
 307  148  158 am
 308  150  151 1
 309  150  342 1
 310  151  152 1
 311  151  343 1
 312  152  153 1
 313  152  344 1
 314  152  345 1
 315  153  154 1
 316  153  155 1
 317  153  346 1
 318  154  347 1
 319  154  348 1
 320  154  349 1
 321  155  350 1
 322  155  351 1
 323  155  352 1
 324  156  157 2
 325  156  159 1
 326  156  166 am
 327  158  159 1
 328  158  353 1
 329  159  160 1
 330  159  354 1
 331  160  161 1
 332  160  355 1
 333  160  356 1
 334  161  162 1
 335  161  163 1
 336  161  357 1
 337  162  358 1
 338  162  359 1
 339  162  360 1
 340  163  361 1
 341  163  362 1
 342  163  363 1
 343  164  165 2
 344  164  167 1
 345  164  170 1
 346  166  167 1
 347  166  364 1
 348  167  168 1
 349  167  365 1
 350  168  169 1
 351  168  366 1
 352  168  367 1
 353  169  368 1
 354  170  369 1
 355  171  172 2
 356  171  187 1
 357  173  174 1
 358  173  370 1
 359  173  371 1
 360  173  372 1
 361  174  175 1
 362  174  373 1
 363  174  374 1
 364  175  176 1
 365  175  375 1
 366  175  376 1
 367  176  177 1
 368  176  377 1
 369  176  378 1
 370  177  178 1
 371  177  379 1
 372  177  380 1
 373  178  179 1
 374  178  381 1
 375  178  382 1
 376  179  180 1
 377  179  383 1
 378  179  384 1
 379  180  181 1
 380  180  385 1
 381  180  386 1
 382  181  182 1
 383  181  387 1
 384  181  388 1
 385  182  183 1
 386  182  389 1
 387  182  390 1
 388  183  184 1
 389  183  391 1
 390  183  392 1
 391  184  185 1
 392  184  393 1
 393  184  394 1
 394  185  186 1
 395  185  395 1
 396  185  396 1
 397  186  187 1
 398  186  397 1
 399  186  398 1
 400  187  399 1
 401  187  400 1

#	End of record

