#	Name: ASD01150258
#	Creating user name:	WinNT
#	Creation time:	15. 06. 2019 19:03

#	Modifying user name:	WinNT
#	Modification time:	15. 06. 2019 19:03

#	Program:	/corina/corina34_cracker 3.40 0067  02.08.2006

@<TRIPOS>MOLECULE
ASD01150258
  45   47    0    0    0
SMALL
NO_CHARGES


@<TRIPOS>ATOM
   1 C1            -0.0159     1.3240     0.0093 C.ar    
   2 N2             0.0021    -0.0041     0.0020 N.ar    
   3 C3             1.1481    -0.6685    -0.0125 C.ar    
   4 N4             2.3153    -0.0444    -0.0203 N.ar    
   5 C5             2.3763     1.2867    -0.0137 C.ar    
   6 C6             1.1901     2.0185     0.0015 C.ar    
   7 C7             3.6877     1.9798    -0.0220 C.ar    
   8 C8             4.8692     1.2409    -0.0368 C.ar    
   9 C9             6.0866     1.8910    -0.0445 C.ar    
  10 C10            6.1354     3.2734    -0.0370 C.ar    
  11 C11            4.9658     4.0119    -0.0223 C.ar    
  12 C12            3.7428     3.3724    -0.0208 C.ar    
  13 N13            1.1243    -2.0524    -0.0192 N.pl3   
  14 C14           -0.1567    -2.7630    -0.0103 C.3     
  15 C15            0.0254    -4.1505    -0.6288 C.3     
  16 C16           -0.6497    -2.9077     1.4308 C.3     
  17 C17           -1.3125    -4.8927    -0.6195 C.3     
  18 C18           -1.8054    -5.0374     0.8217 C.3     
  19 C19           -1.9876    -3.6498     1.4401 C.3     
  20 O20           -1.1938     1.9943     0.0186 O.3     
  21 C21           -2.3874     1.2086     0.0199 C.3     
  22 C22            7.4677     3.9775    -0.0444 C.3     
  23 F23            7.8687     4.2029    -1.3656 F       
  24 F24            7.3520     5.2016     0.6231 F       
  25 F25            8.4193     3.1818     0.6025 F       
  26 H26            1.2064     3.0984     0.0068 H       
  27 H27            4.8323     0.1615    -0.0419 H       
  28 H28            7.0028     1.3194    -0.0559 H       
  29 H29            5.0098     5.0910    -0.0162 H       
  30 H30            2.8303     3.9500    -0.0139 H       
  31 H31            1.9559    -2.5517    -0.0298 H       
  32 H32           -0.8885    -2.2001    -0.5898 H       
  33 H33            0.3766    -4.0475    -1.6555 H       
  34 H34            0.7572    -4.7134    -0.0492 H       
  35 H35            0.0821    -3.4705     2.0104 H       
  36 H36           -0.7795    -1.9192     1.8714 H       
  37 H37           -2.0442    -4.3298    -1.1990 H       
  38 H38           -1.1827    -5.8812    -1.0600 H       
  39 H39           -2.7586    -5.5661     0.8283 H       
  40 H40           -1.0737    -5.6002     1.4012 H       
  41 H41           -2.3388    -3.7529     2.4669 H       
  42 H42           -2.7194    -3.0870     0.8606 H       
  43 H43           -3.2559     1.8672     0.0276 H       
  44 H44           -2.4126     0.5845    -0.8733 H       
  45 H45           -2.4042     0.5748     0.9066 H       
@<TRIPOS>BOND
   1    1    2 ar
   2    1    6 ar
   3    1   20 1
   4    2    3 ar
   5    3    4 ar
   6    3   13 1
   7    4    5 ar
   8    5    6 ar
   9    5    7 1
  10    6   26 1
  11    7    8 ar
  12    7   12 ar
  13    8    9 ar
  14    8   27 1
  15    9   10 ar
  16    9   28 1
  17   10   11 ar
  18   10   22 1
  19   11   12 ar
  20   11   29 1
  21   12   30 1
  22   13   14 1
  23   13   31 1
  24   14   15 1
  25   14   16 1
  26   14   32 1
  27   15   17 1
  28   15   33 1
  29   15   34 1
  30   16   19 1
  31   16   35 1
  32   16   36 1
  33   17   18 1
  34   17   37 1
  35   17   38 1
  36   18   19 1
  37   18   39 1
  38   18   40 1
  39   19   41 1
  40   19   42 1
  41   20   21 1
  42   21   43 1
  43   21   44 1
  44   21   45 1
  45   22   23 1
  46   22   24 1
  47   22   25 1

#	End of record

