#	Name: ASD02198034
#	Creating user name:	WinNT
#	Creation time:	15. 06. 2019 20:18

#	Modifying user name:	WinNT
#	Modification time:	15. 06. 2019 20:18

#	Program:	/corina/corina34_cracker 3.40 0067  02.08.2006

@<TRIPOS>MOLECULE
ASD02198034
  33   35    0    0    0
SMALL
NO_CHARGES


@<TRIPOS>ATOM
   1 C1            -0.0156     1.3778    -0.0255 C.2     
   2 C2             0.0072    -0.0012    -0.0104 C.2     
   3 C3            -1.1790    -0.8003     0.0596 C.1     
   4 S4             1.5643     2.0122    -0.1146 S.3     
   5 C5             2.2785     0.4077    -0.1326 C.2     
   6 C6             1.2867    -0.5465    -0.0701 C.2     
   7 C7             3.6484     0.1391    -0.2002 C.2     
   8 O8             4.0430    -1.0116    -0.2074 O.2     
   9 C9             4.6368     1.2749    -0.2641 C.3     
  10 N10            1.5370    -1.9083    -0.0660 N.pl3   
  11 N11           -1.1603     2.1394     0.0194 N.pl3   
  12 N12           -2.1200    -1.4343     0.1151 N.1     
  13 C13           -1.0708     3.5295     0.1320 C.ar    
  14 C14           -1.9780     4.3419    -0.5364 C.ar    
  15 C15           -1.8869     5.7152    -0.4226 C.ar    
  16 C16           -0.8938     6.2818     0.3553 C.ar    
  17 C17            0.0109     5.4760     1.0221 C.ar    
  18 C18           -0.0779     4.1018     0.9172 C.ar    
  19 C19            6.0560     1.0056     0.2401 C.3     
  20 C20            5.7918     1.1511    -1.2599 C.3     
  21 H21            4.2225     2.2687    -0.0944 H       
  22 H22            2.4497    -2.2338    -0.1086 H       
  23 H23            0.7995    -2.5368    -0.0205 H       
  24 H24           -2.0296     1.7115    -0.0271 H       
  25 H25           -2.7533     3.9001    -1.1447 H       
  26 H26           -2.5919     6.3474    -0.9420 H       
  27 H27           -0.8245     7.3561     0.4421 H       
  28 H28            0.7855     5.9217     1.6285 H       
  29 H29            0.6287     3.4731     1.4385 H       
  30 H30            6.5755     1.8224     0.7412 H       
  31 H31            6.2748     0.0069     0.6181 H       
  32 H32            5.8368     0.2481    -1.8687 H       
  33 H33            6.1375     2.0636    -1.7456 H       
@<TRIPOS>BOND
   1    1    2 2
   2    1    4 1
   3    1   11 1
   4    2    3 1
   5    2    6 1
   6    3   12 3
   7    4    5 1
   8    5    6 2
   9    5    7 1
  10    6   10 1
  11    7    8 2
  12    7    9 1
  13    9   19 1
  14    9   20 1
  15    9   21 1
  16   10   22 1
  17   10   23 1
  18   11   13 1
  19   11   24 1
  20   13   14 ar
  21   13   18 ar
  22   14   15 ar
  23   14   25 1
  24   15   16 ar
  25   15   26 1
  26   16   17 ar
  27   16   27 1
  28   17   18 ar
  29   17   28 1
  30   18   29 1
  31   19   20 1
  32   19   30 1
  33   19   31 1
  34   20   32 1
  35   20   33 1

#	End of record

