#	Name: ASD01180067
#	Creating user name:	WinNT
#	Creation time:	15. 06. 2019 19:06

#	Modifying user name:	WinNT
#	Modification time:	15. 06. 2019 19:06

#	Program:	/corina/corina34_cracker 3.40 0067  02.08.2006

@<TRIPOS>MOLECULE
ASD01180067
  67   70    0    0    0
SMALL
NO_CHARGES


@<TRIPOS>ATOM
   1 C1            -0.0184     1.5028     0.0103 C.2     
   2 C2             0.0021    -0.0041     0.0020 C.3     
   3 C3             1.4513    -0.4944    -0.0145 C.3     
   4 O4             1.0197     2.1211     0.0037 O.2     
   5 O5            -1.1898     2.1580     0.0194 O.3     
   6 N6             1.4712    -1.9592    -0.0225 N.am    
   7 C7             2.6473    -2.6171    -0.0373 C.2     
   8 C8             2.6674    -4.0954    -0.0454 C.ar    
   9 C9             3.8837    -4.7799    -0.0607 C.ar    
  10 C10            3.8954    -6.1594    -0.0677 C.ar    
  11 C11            2.7049    -6.8644    -0.0601 C.ar    
  12 C12            1.4958    -6.1920    -0.0450 C.ar    
  13 C13            1.4701    -4.8127    -0.0320 C.ar    
  14 O14            3.6916    -1.9951    -0.0439 O.2     
  15 C15            2.7254    -8.3712    -0.0689 C.3     
  16 N16            1.6827    -8.8789     0.8263 N.pl3   
  17 N17            2.8721   -10.8644     1.1174 N.ar    
  18 C18            1.8088   -10.1380     1.3937 C.ar    
  19 C19            0.8011   -10.6078     2.2488 C.ar    
  20 C20            0.9115   -11.8422     2.8138 C.ar    
  21 C21            2.0524   -12.6149     2.5139 C.ar    
  22 C22            2.2290   -13.8949     3.0606 C.ar    
  23 C23            3.3436   -14.6133     2.7478 C.ar    
  24 C24            4.3112   -14.0934     1.8920 C.ar    
  25 C25            4.1712   -12.8547     1.3440 C.ar    
  26 C26            3.0350   -12.0842     1.6429 C.ar    
  27 C27           -0.4014    -9.7481     2.5422 C.3     
  28 C28            2.4680    -8.8765    -1.4899 C.3     
  29 C29            2.4684   -10.4097    -1.6081 C.3     
  30 C30            1.2815   -10.2571    -2.5739 C.3     
  31 C31            0.9776    -8.9265    -1.8654 C.3     
  32 C32            1.6989   -10.0913    -4.0365 C.3     
  33 C33            0.1944   -11.3164    -2.3812 C.3     
  34 C34           -1.1335     3.6089     0.0270 C.3     
  35 H35           -0.4983    -0.3791     0.8948 H       
  36 H36           -0.5153    -0.3696    -0.8850 H       
  37 H37            1.9516    -0.1193    -0.9073 H       
  38 H38            1.9686    -0.1289     0.8726 H       
  39 H39            0.6378    -2.4556    -0.0172 H       
  40 H40            4.8137    -4.2307    -0.0674 H       
  41 H41            4.8359    -6.6902    -0.0796 H       
  42 H42            0.5700    -6.7482    -0.0391 H       
  43 H43            0.5257    -4.2891    -0.0157 H       
  44 H44            3.6993    -8.7233     0.2711 H       
  45 H45            0.9042    -8.3344     1.0221 H       
  46 H46            0.1451   -12.2194     3.4747 H       
  47 H47            1.4857   -14.3083     3.7262 H       
  48 H48            3.4785   -15.5985     3.1692 H       
  49 H49            5.1865   -14.6817     1.6594 H       
  50 H50            4.9311   -12.4658     0.6823 H       
  51 H51           -1.1816    -9.9523     1.8090 H       
  52 H52           -0.7739    -9.9734     3.5415 H       
  53 H53           -0.1183    -8.6969     2.4884 H       
  54 H54            3.0909    -8.3810    -2.2347 H       
  55 H55            3.3658   -10.8111    -2.0790 H       
  56 H56            2.2127   -10.9193    -0.6791 H       
  57 H57            0.3142    -9.0306    -1.0068 H       
  58 H58            0.6713    -8.1305    -2.5441 H       
  59 H59            2.2661   -10.9664    -4.3539 H       
  60 H60            0.8098    -9.9893    -4.6588 H       
  61 H61            2.3182    -9.2002    -4.1388 H       
  62 H62           -0.2007   -11.2512    -1.3675 H       
  63 H63           -0.6102   -11.1455    -3.0965 H       
  64 H64            0.6197   -12.3069    -2.5425 H       
  65 H65           -0.6017     3.9472     0.9164 H       
  66 H66           -0.6102     3.9569    -0.8636 H       
  67 H67           -2.1463     4.0118     0.0340 H       
@<TRIPOS>BOND
   1    1    2 1
   2    1    4 2
   3    1    5 1
   4    2    3 1
   5    2   35 1
   6    2   36 1
   7    3    6 1
   8    3   37 1
   9    3   38 1
  10    5   34 1
  11    6    7 am
  12    6   39 1
  13    7    8 1
  14    7   14 2
  15    8    9 ar
  16    8   13 ar
  17    9   10 ar
  18    9   40 1
  19   10   11 ar
  20   10   41 1
  21   11   12 ar
  22   11   15 1
  23   12   13 ar
  24   12   42 1
  25   13   43 1
  26   15   16 1
  27   15   28 1
  28   15   44 1
  29   16   18 1
  30   16   45 1
  31   17   18 ar
  32   17   26 ar
  33   18   19 ar
  34   19   20 ar
  35   19   27 1
  36   20   21 ar
  37   20   46 1
  38   21   22 ar
  39   21   26 ar
  40   22   23 ar
  41   22   47 1
  42   23   24 ar
  43   23   48 1
  44   24   25 ar
  45   24   49 1
  46   25   26 ar
  47   25   50 1
  48   27   51 1
  49   27   52 1
  50   27   53 1
  51   28   29 1
  52   28   31 1
  53   28   54 1
  54   29   30 1
  55   29   55 1
  56   29   56 1
  57   30   31 1
  58   30   32 1
  59   30   33 1
  60   31   57 1
  61   31   58 1
  62   32   59 1
  63   32   60 1
  64   32   61 1
  65   33   62 1
  66   33   63 1
  67   33   64 1
  68   34   65 1
  69   34   66 1
  70   34   67 1

#	End of record

