#	Name: ASD03331720
#	Creating user name:	WinNT
#	Creation time:	15. 06. 2019 20:39

#	Modifying user name:	WinNT
#	Modification time:	15. 06. 2019 20:39

#	Program:	/corina/corina34_cracker 3.40 0067  02.08.2006

@<TRIPOS>MOLECULE
ASD03331720
  51   54    0    0    0
SMALL
NO_CHARGES


@<TRIPOS>ATOM
   1 C1             1.1662    -0.4244    -1.2316 C.ar    
   2 C2             0.6547     0.0105    -2.4417 C.ar    
   3 C3             1.1651     1.1476    -3.0428 C.ar    
   4 C4             2.1868     1.8516    -2.4360 C.ar    
   5 C5             2.7014     1.4176    -1.2215 C.ar    
   6 C6             2.1875     0.2762    -0.6205 C.ar    
   7 N7             3.7372     2.1291    -0.6045 N.am    
   8 C8             3.7767     3.4734    -0.6919 C.2     
   9 N9             4.7205     4.1648    -0.0228 N.am    
  10 O10            2.9607     4.0625    -1.3743 O.2     
  11 C11            4.8222     5.5507    -0.1889 C.ar    
  12 C12            3.7723     7.6843    -0.5304 C.ar    
  13 C13            3.6759     6.3153    -0.3660 C.ar    
  14 C14            6.0670     6.1619    -0.1712 C.ar    
  15 C15            6.1632     7.5410    -0.3369 C.ar    
  16 C16            5.0079     8.2996    -0.5197 C.ar    
  17 C17            7.4915     8.2014    -0.3185 C.ar    
  18 N18            8.5866     7.4706    -0.1489 N.ar    
  19 C19            7.5779     9.5804    -0.4850 C.ar    
  20 C20            8.8237    10.1877    -0.4667 C.ar    
  21 C21            9.9443     9.3959    -0.2823 C.ar    
  22 C22            9.7892     8.0217    -0.1270 C.ar    
  23 Cl23          -0.6290    -0.8724    -3.2073 Cl      
  24 C24           11.7801     4.9697     0.4717 C.3     
  25 C25           10.5290     5.8072     0.1965 C.3     
  26 N26           10.9098     7.2193     0.0531 N.3     
  27 C27           11.8658     7.3947    -1.0491 C.3     
  28 C28           13.1169     6.5572    -0.7739 C.3     
  29 N29           12.7361     5.1451    -0.6305 N.3     
  30 H30            0.7633    -1.3099    -0.7626 H       
  31 H31            0.7645     1.4848    -3.9873 H       
  32 H32            2.5852     2.7387    -2.9058 H       
  33 H33            2.5861    -0.0635     0.3241 H       
  34 H34            4.4266     1.6545    -0.1142 H       
  35 H35            5.3292     3.7019     0.5738 H       
  36 H36            2.8782     8.2743    -0.6680 H       
  37 H37            2.7068     5.8387    -0.3755 H       
  38 H38            6.9590     5.5699    -0.0289 H       
  39 H39            5.0794     9.3695    -0.6488 H       
  40 H40            6.6845    10.1705    -0.6271 H       
  41 H41            8.9182    11.2561    -0.5939 H       
  42 H42           10.9288     9.8395    -0.2633 H       
  43 H43           12.2379     5.2959     1.4055 H       
  44 H44           11.5039     3.9181     0.5496 H       
  45 H45           10.0560     5.4630    -0.7232 H       
  46 H46            9.8307     5.7014     1.0267 H       
  47 H47           11.4080     7.0685    -1.9829 H       
  48 H48           12.1421     8.4463    -1.1270 H       
  49 H49           13.8153     6.6630    -1.6041 H       
  50 H50           13.5899     6.9014     0.1458 H       
  51 H51           13.5496     4.5626    -0.4998 H       
@<TRIPOS>BOND
   1    1    2 ar
   2    1    6 ar
   3    1   30 1
   4    2    3 ar
   5    2   23 1
   6    3    4 ar
   7    3   31 1
   8    4    5 ar
   9    4   32 1
  10    5    6 ar
  11    5    7 1
  12    6   33 1
  13    7    8 am
  14    7   34 1
  15    8    9 am
  16    8   10 2
  17    9   11 1
  18    9   35 1
  19   11   14 ar
  20   11   13 ar
  21   12   13 ar
  22   12   16 ar
  23   12   36 1
  24   13   37 1
  25   14   15 ar
  26   14   38 1
  27   15   16 ar
  28   15   17 1
  29   16   39 1
  30   17   19 ar
  31   17   18 ar
  32   18   22 ar
  33   19   20 ar
  34   19   40 1
  35   20   21 ar
  36   20   41 1
  37   21   22 ar
  38   21   42 1
  39   22   26 1
  40   24   25 1
  41   24   29 1
  42   24   43 1
  43   24   44 1
  44   25   26 1
  45   25   45 1
  46   25   46 1
  47   26   27 1
  48   27   28 1
  49   27   47 1
  50   27   48 1
  51   28   29 1
  52   28   49 1
  53   28   50 1
  54   29   51 1

#	End of record

