#	Name: ASD01150891
#	Creating user name:	WinNT
#	Creation time:	15. 06. 2019 19:05

#	Modifying user name:	WinNT
#	Modification time:	15. 06. 2019 19:05

#	Program:	/corina/corina34_cracker 3.40 0067  02.08.2006

@<TRIPOS>MOLECULE
ASD01150891
  49   50    0    0    0
SMALL
NO_CHARGES


@<TRIPOS>ATOM
   1 C1             0.0200     1.4647    -0.0052 C.2     
   2 C2             0.1579     0.0039    -0.1011 C.2     
   3 N3            -0.9319    -0.7835    -0.0071 N.am    
   4 O4             1.2553    -0.4938    -0.2652 O.2     
   5 C5            -0.8016    -2.1642    -0.0978 C.2     
   6 N6             0.3378    -2.8372    -0.2761 N.2     
   7 C7             0.0956    -4.1315    -0.3156 C.2     
   8 N8            -1.2366    -4.3450    -0.1610 N.pl3   
   9 C9            -1.8328    -3.0915    -0.0130 C.2     
  10 C10           -3.2031    -2.8210     0.1753 C.2     
  11 O11           -4.0909    -3.8374     0.2280 O.3     
  12 O12           -3.5866    -1.6709     0.2905 O.2     
  13 C13           -5.4636    -3.4903     0.4211 C.3     
  14 C14           -6.3118    -4.7633     0.4539 C.3     
  15 S15            1.3102    -5.3890    -0.5353 S.3     
  16 C16            2.7993    -4.3683    -0.6657 C.3     
  17 C17           -1.9169    -5.6424    -0.1469 C.3     
  18 C18           -1.9751    -6.1637     1.2659 C.ar    
  19 C19           -3.0517    -5.8505     2.0744 C.ar    
  20 C20           -3.1050    -6.3286     3.3704 C.ar    
  21 C21           -2.0820    -7.1204     3.8576 C.ar    
  22 C22           -1.0058    -7.4343     3.0488 C.ar    
  23 C23           -0.9546    -6.9598     1.7514 C.ar    
  24 C24            1.1044     2.2348     0.0219 C.2     
  25 C25            2.4715     1.6081     0.1177 C.3     
  26 C26            0.9657     3.7340    -0.0432 C.3     
  27 H27           -0.9617     1.9127     0.0387 H       
  28 H28           -1.8073    -0.3865     0.1238 H       
  29 H29           -5.5740    -2.9557     1.3646 H       
  30 H30           -5.7961    -2.8532    -0.3985 H       
  31 H31           -6.2015    -5.2978    -0.4896 H       
  32 H32           -5.9794    -5.4003     1.2735 H       
  33 H33           -7.3589    -4.4985     0.6012 H       
  34 H34            2.7031    -3.6922    -1.5152 H       
  35 H35            2.9230    -3.7879     0.2485 H       
  36 H36            3.6684    -5.0104    -0.8089 H       
  37 H37           -2.9295    -5.5259    -0.5331 H       
  38 H38           -1.3685    -6.3471    -0.7719 H       
  39 H39           -3.8510    -5.2319     1.6938 H       
  40 H40           -3.9458    -6.0833     4.0023 H       
  41 H41           -2.1233    -7.4934     4.8703 H       
  42 H42           -0.2064    -8.0526     3.4295 H       
  43 H43           -0.1138    -7.2051     1.1195 H       
  44 H44            2.8124     1.3258    -0.8784 H       
  45 H45            3.1698     2.3238     0.5515 H       
  46 H46            2.4211     0.7211     0.7493 H       
  47 H47            0.3748     4.0814     0.8043 H       
  48 H48            1.9541     4.1922    -0.0091 H       
  49 H49            0.4678     4.0129    -0.9719 H       
@<TRIPOS>BOND
   1    1    2 1
   2    1   24 2
   3    1   27 1
   4    2    3 am
   5    2    4 2
   6    3    5 1
   7    3   28 1
   8    5    6 1
   9    5    9 2
  10    6    7 2
  11    7    8 1
  12    7   15 1
  13    8    9 1
  14    8   17 1
  15    9   10 1
  16   10   11 1
  17   10   12 2
  18   11   13 1
  19   13   14 1
  20   13   29 1
  21   13   30 1
  22   14   31 1
  23   14   32 1
  24   14   33 1
  25   15   16 1
  26   16   34 1
  27   16   35 1
  28   16   36 1
  29   17   18 1
  30   17   37 1
  31   17   38 1
  32   18   19 ar
  33   18   23 ar
  34   19   20 ar
  35   19   39 1
  36   20   21 ar
  37   20   40 1
  38   21   22 ar
  39   21   41 1
  40   22   23 ar
  41   22   42 1
  42   23   43 1
  43   24   25 1
  44   24   26 1
  45   25   44 1
  46   25   45 1
  47   25   46 1
  48   26   47 1
  49   26   48 1
  50   26   49 1

#	End of record

