#	Name: ASD01230324
#	Creating user name:	WinNT
#	Creation time:	15. 06. 2019 19:14

#	Modifying user name:	WinNT
#	Modification time:	15. 06. 2019 19:14

#	Program:	/corina/corina34_cracker 3.40 0067  02.08.2006

@<TRIPOS>MOLECULE
ASD01230324
  33   35    0    0    0
SMALL
NO_CHARGES


@<TRIPOS>ATOM
   1 C1            -0.0169     1.3983     0.0097 C.ar    
   2 C2             0.0021    -0.0041     0.0020 C.ar    
   3 C3             1.2327    -0.6605    -0.0133 C.ar    
   4 C4             2.3883     0.1054    -0.0203 C.ar    
   5 C5             2.2901     1.4832    -0.0119 C.ar    
   6 N6             1.1146     2.0835     0.0026 N.ar    
   7 N7            -1.2307     2.0714     0.0191 N.pl3   
   8 C8            -1.4570    -1.7865    -0.9131 C.ar    
   9 C9            -1.2639    -0.7754     0.0105 C.ar    
  10 C10           -2.2568    -0.4735     0.9566 C.ar    
  11 C11           -3.4252    -1.1654     0.9853 C.ar    
  12 C12           -3.6529    -2.1994     0.0593 C.ar    
  13 C13           -4.8527    -2.9291     0.0697 C.ar    
  14 C14           -5.0447    -3.9280    -0.8420 C.ar    
  15 C15           -4.0616    -4.2354    -1.7879 C.ar    
  16 C16           -2.8887    -3.5485    -1.8246 C.ar    
  17 C17           -2.6571    -2.5130    -0.9008 C.ar    
  18 O18           -6.2065    -4.6328    -0.8295 O.3     
  19 C19           -6.3496    -5.6651    -1.8071 C.3     
  20 H20            1.2841    -1.7393    -0.0192 H       
  21 H21            3.3573    -0.3713    -0.0318 H       
  22 H22            3.1905     2.0795    -0.0170 H       
  23 H23           -2.0623     1.5720     0.0204 H       
  24 H24           -1.2474     3.0413     0.0245 H       
  25 H25           -0.6918    -2.0119    -1.6412 H       
  26 H26           -2.0890     0.3189     1.6710 H       
  27 H27           -4.1792    -0.9219     1.7191 H       
  28 H28           -5.6198    -2.7019     0.7952 H       
  29 H29           -4.2362    -5.0295    -2.4987 H       
  30 H30           -2.1378    -3.7969    -2.5600 H       
  31 H31           -6.2803    -5.2325    -2.8052 H       
  32 H32           -5.5581    -6.4028    -1.6750 H       
  33 H33           -7.3196    -6.1475    -1.6868 H       
@<TRIPOS>BOND
   1    1    2 ar
   2    1    6 ar
   3    1    7 1
   4    2    3 ar
   5    2    9 1
   6    3    4 ar
   7    3   20 1
   8    4    5 ar
   9    4   21 1
  10    5    6 ar
  11    5   22 1
  12    7   23 1
  13    7   24 1
  14    8    9 ar
  15    8   17 ar
  16    8   25 1
  17    9   10 ar
  18   10   11 ar
  19   10   26 1
  20   11   12 ar
  21   11   27 1
  22   12   13 ar
  23   12   17 ar
  24   13   14 ar
  25   13   28 1
  26   14   15 ar
  27   14   18 1
  28   15   16 ar
  29   15   29 1
  30   16   17 ar
  31   16   30 1
  32   18   19 1
  33   19   31 1
  34   19   32 1
  35   19   33 1

#	End of record

