#	Name: ASD01001028
#	Creating user name:	WinNT
#	Creation time:	15. 06. 2019 18:54

#	Modifying user name:	WinNT
#	Modification time:	15. 06. 2019 18:54

#	Program:	/corina/corina34_cracker 3.40 0067  02.08.2006

@<TRIPOS>MOLECULE
ASD01001028
  44   46    0    0    0
SMALL
NO_CHARGES


@<TRIPOS>ATOM
   1 C1             0.0147     1.2494    -0.1130 C.ar    
   2 C2             0.0835    -0.1272    -0.2181 C.ar    
   3 C3             1.1760     1.9966    -0.0493 C.ar    
   4 C4             1.3136    -0.7566    -0.2595 C.ar    
   5 C5             2.4060     1.3672    -0.0908 C.ar    
   6 C6             2.4748    -0.0094    -0.1964 C.ar    
   7 C7             3.6720     2.1819    -0.0223 C.3     
   8 C8             4.7072     1.4352     0.7788 C.ar    
   9 C9             4.1918     2.4205    -1.4166 C.ar    
  10 O10            3.3979     3.4363     0.6049 O.3     
  11 C11            6.0342     1.4657     0.3928 C.ar    
  12 C12            4.3306     0.7244     1.9030 C.ar    
  13 C13            3.9502     1.4927    -2.4125 C.ar    
  14 C14            4.9055     3.5697    -1.7010 C.ar    
  15 C15            2.8973     3.3222     1.9385 C.3     
  16 C16            6.9846     0.7854     1.1309 C.ar    
  17 C17            5.2801     0.0394     2.6379 C.ar    
  18 C18            4.4221     1.7142    -3.6927 C.ar    
  19 C19            5.3823     3.7885    -2.9799 C.ar    
  20 C20            2.6408     4.7188     2.5082 C.3     
  21 C21            6.6080     0.0750     2.2553 C.ar    
  22 C22            5.1354     2.8637    -3.9772 C.ar    
  23 N23            1.5677     5.3696     1.7447 N.3     
  24 H24            2.3439     4.6358     3.5537 H       
  25 H25           -0.9462     1.7415    -0.0851 H       
  26 H26           -0.8237    -0.7110    -0.2674 H       
  27 H27            1.1222     3.0722     0.0325 H       
  28 H28            1.3673    -1.8322    -0.3409 H       
  29 H29            3.4358    -0.5011    -0.2280 H       
  30 H30            6.3283     2.0208    -0.4857 H       
  31 H31            3.2946     0.7045     2.2074 H       
  32 H32            3.3929     0.5947    -2.1902 H       
  33 H33            5.0902     4.2968    -0.9240 H       
  34 H34            1.9656     2.7566     1.9297 H       
  35 H35            3.6300     2.8057     2.5587 H       
  36 H36            8.0212     0.8087     0.8289 H       
  37 H37            4.9860    -0.5157     3.5164 H       
  38 H38            4.2339     0.9891    -4.4706 H       
  39 H39            5.9396     4.6865    -3.2021 H       
  40 H40            3.5511     5.3139     2.4351 H       
  41 H41            7.3505    -0.4568     2.8318 H       
  42 H42            5.5080     3.0346    -4.9764 H       
  43 H43            0.7314     4.8051     1.7433 H       
  44 H44            1.3793     6.2942     2.1019 H       
@<TRIPOS>BOND
   1    1    2 ar
   2    1    3 ar
   3    1   25 1
   4    2    4 ar
   5    2   26 1
   6    3    5 ar
   7    3   27 1
   8    4    6 ar
   9    4   28 1
  10    5    6 ar
  11    5    7 1
  12    6   29 1
  13    7   10 1
  14    7    8 1
  15    7    9 1
  16    8   12 ar
  17    8   11 ar
  18    9   14 ar
  19    9   13 ar
  20   10   15 1
  21   11   16 ar
  22   11   30 1
  23   12   17 ar
  24   12   31 1
  25   13   18 ar
  26   13   32 1
  27   14   19 ar
  28   14   33 1
  29   15   20 1
  30   15   34 1
  31   15   35 1
  32   16   21 ar
  33   16   36 1
  34   17   21 ar
  35   17   37 1
  36   18   22 ar
  37   18   38 1
  38   19   22 ar
  39   19   39 1
  40   20   23 1
  41   20   24 1
  42   20   40 1
  43   21   41 1
  44   22   42 1
  45   23   43 1
  46   23   44 1

#	End of record

