#	Name: ASD08150079
#	Creating user name:	WinNT
#	Creation time:	15. 06. 2019 21:15

#	Modifying user name:	WinNT
#	Modification time:	15. 06. 2019 21:15

#	Program:	/corina/corina34_cracker 3.40 0067  02.08.2006

@<TRIPOS>MOLECULE
ASD08150079
  44   45    0    0    0
SMALL
NO_CHARGES


@<TRIPOS>ATOM
   1 O1             0.0103     1.3688    -0.0627 O.3     
   2 C2             0.0175     0.0321    -0.0105 C.2     
   3 N3             1.2459    -0.5023     0.0249 N.am    
   4 C4             2.2382     0.5831    -0.0057 C.3     
   5 C5             1.3812     1.8623    -0.0657 C.3     
   6 O6            -0.9970    -0.6364     0.0042 O.2     
   7 C7             3.1213     0.4690    -1.2499 C.3     
   8 C8             1.5508    -1.9340     0.0843 C.3     
   9 C9             1.7643    -2.3430     1.5190 C.ar    
  10 C10            0.6807    -2.6787     2.3094 C.ar    
  11 C11            0.8737    -3.0540     3.6249 C.ar    
  12 C12            2.1562    -3.0938     4.1525 C.ar    
  13 C13            3.2417    -2.7564     3.3573 C.ar    
  14 C14            3.0439    -2.3873     2.0409 C.ar    
  15 O15            2.3486    -3.4622     5.4464 O.3     
  16 C16            3.6960    -3.4805     5.9222 C.3     
  17 C17            1.6386     2.7384     1.1619 C.3     
  18 C18            0.7963     4.0120     1.0651 C.3     
  19 C19            1.1455     4.9439     2.2272 C.3     
  20 C20            1.0893     4.7178    -0.2604 C.3     
  21 O21           -0.5903     3.6720     1.1273 O.3     
  22 H22            2.8462     0.5717     0.8989 H       
  23 H23            1.5857     2.4166    -0.9817 H       
  24 H24            2.4928     0.4371    -2.1399 H       
  25 H25            3.7852     1.3318    -1.3047 H       
  26 H26            3.7151    -0.4432    -1.1916 H       
  27 H27            0.7192    -2.5002    -0.3350 H       
  28 H28            2.4548    -2.1371    -0.4898 H       
  29 H29           -0.3175    -2.6472     1.8983 H       
  30 H30            0.0270    -3.3158     4.2420 H       
  31 H31            4.2410    -2.7866     3.7658 H       
  32 H32            3.8890    -2.1291     1.4200 H       
  33 H33            4.2817    -4.1818     5.3278 H       
  34 H34            4.1258    -2.4827     5.8347 H       
  35 H35            3.7082    -3.7911     6.9669 H       
  36 H36            1.3656     2.1899     2.0634 H       
  37 H37            2.6949     3.0037     1.2039 H       
  38 H38            2.2031     5.2033     2.1798 H       
  39 H39            0.5455     5.8513     2.1583 H       
  40 H40            0.9367     4.4411     3.1715 H       
  41 H41            0.8406     4.0539    -1.0883 H       
  42 H42            0.4893     5.6251    -0.3293 H       
  43 H43            2.1470     4.9772    -0.3078 H       
  44 H44           -1.1847     4.4327     1.0716 H       
@<TRIPOS>BOND
   1    1    2 1
   2    1    5 1
   3    2    3 am
   4    2    6 2
   5    3    4 1
   6    3    8 1
   7    4    5 1
   8    4    7 1
   9    4   22 1
  10    5   17 1
  11    5   23 1
  12    7   24 1
  13    7   25 1
  14    7   26 1
  15    8    9 1
  16    8   27 1
  17    8   28 1
  18    9   10 ar
  19    9   14 ar
  20   10   11 ar
  21   10   29 1
  22   11   12 ar
  23   11   30 1
  24   12   13 ar
  25   12   15 1
  26   13   14 ar
  27   13   31 1
  28   14   32 1
  29   15   16 1
  30   16   33 1
  31   16   34 1
  32   16   35 1
  33   17   18 1
  34   17   36 1
  35   17   37 1
  36   18   19 1
  37   18   20 1
  38   18   21 1
  39   19   38 1
  40   19   39 1
  41   19   40 1
  42   20   41 1
  43   20   42 1
  44   20   43 1
  45   21   44 1

#	End of record

