#	Name: ASD01840057
#	Creating user name:	WinNT
#	Creation time:	15. 06. 2019 19:37

#	Modifying user name:	WinNT
#	Modification time:	15. 06. 2019 19:37

#	Program:	/corina/corina34_cracker 3.40 0067  02.08.2006

@<TRIPOS>MOLECULE
ASD01840057
  48   51    0    0    0
SMALL
NO_CHARGES


@<TRIPOS>ATOM
   1 C1            -0.0425     1.2979     0.0704 C.ar    
   2 N2             0.2523     0.4670     1.0592 N.ar    
   3 C3             1.3897    -0.2045     1.0723 C.ar    
   4 N4             2.2820    -0.0872     0.1164 N.ar    
   5 C5             0.8871     1.4620    -0.9884 C.ar    
   6 C6             0.8232     2.2910    -2.1772 C.2     
   7 C7             2.0748     0.7280    -0.9254 C.ar    
   8 S8             3.0656     1.0873    -2.3317 S.3     
   9 C9             1.8746     2.2056    -2.9687 C.2     
  10 C10           -0.3539     3.1807    -2.4841 C.3     
  11 C11            2.0324     2.9716    -4.2569 C.3     
  12 N12           -1.2401     1.9900     0.0675 N.3     
  13 C13           -2.3788     1.0708    -0.0536 C.3     
  14 C14           -3.6724     1.8755    -0.1997 C.3     
  15 C15           -3.8481     2.7768     1.0255 C.3     
  16 C16           -2.6266     3.6907     1.1565 C.3     
  17 C17           -1.3634     2.8334     1.2633 C.3     
  18 C18           -5.0891     3.6156     0.8598 C.2     
  19 O19           -5.7673     3.5044    -0.1397 O.2     
  20 N20           -5.4454     4.4893     1.8222 N.am    
  21 C21           -6.5446     5.3356     1.6278 C.ar    
  22 C22           -8.7310     5.7251     0.7229 C.ar    
  23 C23           -7.6475     4.8892     0.9132 C.ar    
  24 C24           -6.5349     6.6214     2.1552 C.ar    
  25 C25           -7.6207     7.4540     1.9624 C.ar    
  26 C26           -8.7176     7.0076     1.2443 C.ar    
  27 Cl27          -5.1602     7.1807     3.0557 Cl      
  28 F28           -9.7782     7.8232     1.0565 F       
  29 H29            1.5925    -0.8718     1.8969 H       
  30 H30           -0.2315     4.1349    -1.9716 H       
  31 H31           -0.4104     3.3504    -3.5593 H       
  32 H32           -1.2710     2.7002    -2.1434 H       
  33 H33            2.5189     3.9259    -4.0549 H       
  34 H34            2.6416     2.3931    -4.9514 H       
  35 H35            1.0509     3.1500    -4.6962 H       
  36 H36           -2.2434     0.4385    -0.9311 H       
  37 H37           -2.4382     0.4466     0.8380 H       
  38 H38           -3.6193     2.4896    -1.0987 H       
  39 H39           -4.5191     1.1930    -0.2739 H       
  40 H40           -3.9402     2.1613     1.9204 H       
  41 H41           -2.5571     4.3333     0.2789 H       
  42 H42           -2.7261     4.3051     2.0513 H       
  43 H43           -1.4274     2.2009     2.1488 H       
  44 H44           -0.4904     3.4812     1.3424 H       
  45 H45           -4.9406     4.5322     2.6494 H       
  46 H46           -9.5892     5.3778     0.1668 H       
  47 H47           -7.6586     3.8891     0.5057 H       
  48 H48           -7.6142     8.4532     2.3721 H       
@<TRIPOS>BOND
   1    1    2 ar
   2    1    5 ar
   3    1   12 1
   4    2    3 ar
   5    3    4 ar
   6    3   29 1
   7    4    7 ar
   8    5    7 ar
   9    5    6 1
  10    6    9 2
  11    6   10 1
  12    7    8 1
  13    8    9 1
  14    9   11 1
  15   10   30 1
  16   10   31 1
  17   10   32 1
  18   11   33 1
  19   11   34 1
  20   11   35 1
  21   12   13 1
  22   12   17 1
  23   13   14 1
  24   13   36 1
  25   13   37 1
  26   14   15 1
  27   14   38 1
  28   14   39 1
  29   15   16 1
  30   15   18 1
  31   15   40 1
  32   16   17 1
  33   16   41 1
  34   16   42 1
  35   17   43 1
  36   17   44 1
  37   18   19 2
  38   18   20 am
  39   20   21 1
  40   20   45 1
  41   21   24 ar
  42   21   23 ar
  43   22   23 ar
  44   22   26 ar
  45   22   46 1
  46   23   47 1
  47   24   25 ar
  48   24   27 1
  49   25   26 ar
  50   25   48 1
  51   26   28 1

#	End of record

