#	Name: ASD01120378
#	Creating user name:	WinNT
#	Creation time:	15. 06. 2019 18:59

#	Modifying user name:	WinNT
#	Modification time:	15. 06. 2019 18:59

#	Program:	/corina/corina34_cracker 3.40 0067  02.08.2006

@<TRIPOS>MOLECULE
ASD01120378
  32   34    0    0    0
SMALL
NO_CHARGES


@<TRIPOS>ATOM
   1 P1            -0.0226     1.8187     0.0120 P.3     
   2 C2             2.0244    -0.3567    -1.1954 C.ar    
   3 C3             2.6988     0.1813    -0.1100 C.ar    
   4 C4             4.0761     0.2860    -0.1312 C.ar    
   5 C5             4.7924    -0.1451    -1.2357 C.ar    
   6 C6             4.1308    -0.6816    -2.3203 C.ar    
   7 C7             2.7479    -0.7928    -2.3113 C.ar    
   8 C8             4.6165    -1.2268    -3.6385 C.3     
   9 C9             3.3759    -1.6622    -4.3860 C.2     
  10 C10            2.2721    -1.4042    -3.5978 C.2     
  11 S11            2.9434    -2.3021    -5.7461 S.o     
  12 C12            1.1453    -2.3078    -5.4226 C.3     
  13 N13            1.0753    -1.7178    -4.0812 N.2     
  14 N14            0.4335    -1.4738    -6.4003 N.3     
  15 O15            0.6709    -0.4649    -1.1737 O.3     
  16 C16            0.0021    -0.0041     0.0020 C.3     
  17 O17            1.3658     2.3310     0.0015 O.2     
  18 O18           -0.8013     2.3521    -1.2923 O.3     
  19 O19           -0.7762     2.3380     1.3367 O.3     
  20 H20            2.1461     0.5196     0.7540 H       
  21 H21            4.5966     0.7061     0.7167 H       
  22 H22            5.8690    -0.0607    -1.2475 H       
  23 H23            5.1391    -0.4503    -4.1971 H       
  24 H24            5.2748    -2.0798    -3.4731 H       
  25 H25            3.0907    -1.2884    -6.6178 H       
  26 H26            0.7530    -3.3248    -5.4217 H       
  27 H27           -0.5597    -1.4762    -6.2226 H       
  28 H28            0.7976    -0.5328    -6.4059 H       
  29 H29            0.5293    -0.3651     0.8851 H       
  30 H30           -1.0205    -0.3814     0.0098 H       
  31 H31           -1.7195     2.0546    -1.3513 H       
  32 H32           -0.8268     3.3010     1.4084 H       
@<TRIPOS>BOND
   1    1   16 1
   2    1   17 2
   3    1   18 1
   4    1   19 1
   5    2    3 ar
   6    2    7 ar
   7    2   15 1
   8    3    4 ar
   9    3   20 1
  10    4    5 ar
  11    4   21 1
  12    5    6 ar
  13    5   22 1
  14    6    7 ar
  15    6    8 1
  16    7   10 1
  17    8    9 1
  18    8   23 1
  19    8   24 1
  20    9   10 1
  21    9   11 2
  22   10   13 2
  23   11   12 1
  24   11   25 1
  25   12   13 1
  26   12   14 1
  27   12   26 1
  28   14   27 1
  29   14   28 1
  30   15   16 1
  31   16   29 1
  32   16   30 1
  33   18   31 1
  34   19   32 1

#	End of record

