#	Name: ASD00600006
#	Creating user name:	WinNT
#	Creation time:	15. 06. 2019 18:36

#	Modifying user name:	WinNT
#	Modification time:	15. 06. 2019 18:36

#	Program:	/corina/corina34_cracker 3.40 0067  02.08.2006

@<TRIPOS>MOLECULE
ASD00600006
  73   76    0    0    0
SMALL
NO_CHARGES


@<TRIPOS>ATOM
   1 C1             0.0571     1.2380     0.5237 C.ar    
   2 C2             0.0055    -0.0093    -0.0751 C.ar    
   3 C3             1.1390    -0.5521    -0.6563 C.ar    
   4 C4             2.3275     0.1474    -0.6416 C.ar    
   5 C5             2.3861     1.4058    -0.0394 C.ar    
   6 C6             1.2395     1.9479     0.5445 C.ar    
   7 Br7           -1.6196    -0.9759    -0.0987 Br      
   8 C8             3.6551     2.1597    -0.0197 C.2     
   9 C9             3.6388     3.6646    -0.0980 C.3     
  10 N10            4.7810     1.5287     0.0646 N.2     
  11 O11            4.7938     0.1278     0.2701 O.3     
  12 C12            6.1044    -0.4370     0.3434 C.3     
  13 C13            5.9974    -1.9470     0.5658 C.3     
  14 C14            5.0635     4.2010     0.0662 C.3     
  15 C15            5.0491     5.7248    -0.0749 C.3     
  16 N16            4.5182     6.0905    -1.3943 N.3     
  17 C17            3.1343     5.6270    -1.5569 C.3     
  18 C18            3.0915     4.1003    -1.4600 C.3     
  19 C19            4.6181     7.5388    -1.6190 C.3     
  20 C20            4.0563     7.8803    -3.0010 C.3     
  21 C21            4.1938     9.3862    -3.2459 C.3     
  22 N22            3.5506    10.1061    -2.1383 N.am    
  23 C23            3.9526     9.7884    -0.7612 C.3     
  24 C24            3.8178     8.2779    -0.5442 C.3     
  25 C25            2.6100    11.0404    -2.3808 C.2     
  26 C26            1.9718    11.7563    -1.2557 C.ar    
  27 O27            2.2864    11.2944    -3.5246 O.2     
  28 C28            0.8090    11.2535    -0.6603 C.ar    
  29 C29            0.2506    11.9609     0.3900 C.ar    
  30 C30            0.8530    13.1311     0.8145 C.ar    
  31 N31            1.9501    13.5823     0.2340 N.ar    
  32 C32            2.5218    12.9416    -0.7657 C.ar    
  33 C33            3.7731    13.4999    -1.3930 C.3     
  34 C34            0.1808     9.9745    -1.1509 C.3     
  35 O35            2.5314    14.7855     0.7024 O.3     
  36 C36            6.0854     7.9659    -1.5455 C.3     
  37 H37           -0.8315     1.6580     0.9714 H       
  38 H38            1.0923    -1.5256    -1.1218 H       
  39 H39            3.2111    -0.2773    -1.0947 H       
  40 H40            1.2783     2.9209     1.0116 H       
  41 H41            3.0058     4.0637     0.6946 H       
  42 H42            6.6359    -0.2438    -0.5883 H       
  43 H43            6.6488     0.0147     1.1727 H       
  44 H44            5.4529    -2.3987    -0.2634 H       
  45 H45            6.9970    -2.3778     0.6217 H       
  46 H46            5.4658    -2.1402     1.4976 H       
  47 H47            5.4430     3.9304     1.0515 H       
  48 H48            5.7053     3.7705    -0.7025 H       
  49 H49            4.4182     6.1556     0.7026 H       
  50 H50            6.0642     6.1086     0.0272 H       
  51 H51            2.5123     6.0582    -0.7724 H       
  52 H52            2.7586     5.9398    -2.5311 H       
  53 H53            3.7023     3.6681    -2.2527 H       
  54 H54            2.0622     3.7577    -1.5651 H       
  55 H55            4.6117     7.3353    -3.7643 H       
  56 H56            3.0041     7.5990    -3.0456 H       
  57 H57            5.2494     9.6541    -3.2917 H       
  58 H58            3.7067     9.6497    -4.1847 H       
  59 H59            4.9885    10.0891    -0.6044 H       
  60 H60            3.3064    10.3173    -0.0607 H       
  61 H61            2.7679     7.9929    -0.6120 H       
  62 H62            4.2034     8.0161     0.4411 H       
  63 H63           -0.6466    11.6029     0.8730 H       
  64 H64            0.4191    13.6852     1.6337 H       
  65 H65            4.6469    13.1027    -0.8763 H       
  66 H66            3.8114    13.2139    -2.4441 H       
  67 H67            3.7662    14.5868    -1.3122 H       
  68 H68            0.6013     9.1303    -0.6046 H       
  69 H69           -0.8963    10.0128    -0.9876 H       
  70 H70            0.3828     9.8555    -2.2154 H       
  71 H71            6.6559     7.4392    -2.3105 H       
  72 H72            6.1598     9.0405    -1.7123 H       
  73 H73            6.4859     7.7224    -0.5615 H       
@<TRIPOS>BOND
   1    1    2 ar
   2    1    6 ar
   3    1   37 1
   4    2    3 ar
   5    2    7 1
   6    3    4 ar
   7    3   38 1
   8    4    5 ar
   9    4   39 1
  10    5    6 ar
  11    5    8 1
  12    6   40 1
  13    8    9 1
  14    8   10 2
  15    9   14 1
  16    9   18 1
  17    9   41 1
  18   10   11 1
  19   11   12 1
  20   12   13 1
  21   12   42 1
  22   12   43 1
  23   13   44 1
  24   13   45 1
  25   13   46 1
  26   14   15 1
  27   14   47 1
  28   14   48 1
  29   15   16 1
  30   15   49 1
  31   15   50 1
  32   16   17 1
  33   16   19 1
  34   17   18 1
  35   17   51 1
  36   17   52 1
  37   18   53 1
  38   18   54 1
  39   19   20 1
  40   19   36 1
  41   19   24 1
  42   20   21 1
  43   20   55 1
  44   20   56 1
  45   21   22 1
  46   21   57 1
  47   21   58 1
  48   22   23 1
  49   22   25 am
  50   23   24 1
  51   23   59 1
  52   23   60 1
  53   24   61 1
  54   24   62 1
  55   25   26 1
  56   25   27 2
  57   26   28 ar
  58   26   32 ar
  59   28   29 ar
  60   28   34 1
  61   29   30 ar
  62   29   63 1
  63   30   31 ar
  64   30   64 1
  65   31   32 ar
  66   31   35 1
  67   32   33 1
  68   33   65 1
  69   33   66 1
  70   33   67 1
  71   34   68 1
  72   34   69 1
  73   34   70 1
  74   36   71 1
  75   36   72 1
  76   36   73 1

#	End of record

