#	Name: ASD00060018
#	Creating user name:	WinNT
#	Creation time:	15. 06. 2019 18:29

#	Modifying user name:	WinNT
#	Modification time:	15. 06. 2019 18:29

#	Program:	/corina/corina34_cracker 3.40 0067  02.08.2006

@<TRIPOS>MOLECULE
ASD00060018
  32   34    0    0    0
SMALL
NO_CHARGES


@<TRIPOS>ATOM
   1 C1            -0.0169     1.3918     0.0097 C.ar    
   2 C2             0.0021    -0.0041     0.0020 C.ar    
   3 C3            -1.1849    -0.7069     0.0095 C.ar    
   4 C4            -2.3924    -0.0313     0.0242 C.ar    
   5 C5            -2.4183     1.3521     0.0319 C.ar    
   6 C6            -1.2385     2.0671     0.0308 C.ar    
   7 C7             1.2519     2.1519     0.0017 C.2     
   8 C8             1.6169     2.9847     1.1561 C.2     
   9 C9             2.0918     2.0792    -1.0884 C.2     
  10 C10            1.7418     1.2804    -2.1957 C.2     
  11 O11            2.5648     1.2092    -3.2639 O.3     
  12 O12            0.6974     0.6548    -2.1891 O.2     
  13 S13            1.9631     2.3680     2.7620 S.3     
  14 C14            2.2648     3.9899     3.3749 C.ar    
  15 C15            2.0913     4.9215     2.3431 C.ar    
  16 C16            1.7366     4.3179     1.1259 C.2     
  17 C17            2.6246     4.4258     4.6533 C.ar    
  18 C18            2.8082     5.7656     4.9012 C.ar    
  19 C19            2.6370     6.6947     3.8816 C.ar    
  20 C20            2.2887     6.2936     2.6288 C.ar    
  21 Cl21           2.8711     8.3833     4.2093 Cl      
  22 H22            0.9439    -0.5325    -0.0101 H       
  23 H23           -1.1716    -1.7868     0.0036 H       
  24 H24           -3.3189    -0.5864     0.0293 H       
  25 H25           -3.3641     1.8733     0.0433 H       
  26 H26           -1.2601     3.1469     0.0368 H       
  27 H27            3.0183     2.6342    -1.0942 H       
  28 H28            2.2404     0.6372    -3.9729 H       
  29 H29            1.5645     4.8915     0.2271 H       
  30 H30            2.7584     3.7078     5.4490 H       
  31 H31            3.0859     6.0971     5.8909 H       
  32 H32            2.1592     7.0279     1.8475 H       
@<TRIPOS>BOND
   1    1    2 ar
   2    1    7 1
   3    1    6 ar
   4    2    3 ar
   5    2   22 1
   6    3    4 ar
   7    3   23 1
   8    4    5 ar
   9    4   24 1
  10    5    6 ar
  11    5   25 1
  12    6   26 1
  13    7    8 1
  14    7    9 2
  15    8   13 1
  16    8   16 2
  17    9   10 1
  18    9   27 1
  19   10   11 1
  20   10   12 2
  21   11   28 1
  22   13   14 1
  23   14   15 ar
  24   14   17 ar
  25   15   16 1
  26   15   20 ar
  27   16   29 1
  28   17   18 ar
  29   17   30 1
  30   18   19 ar
  31   18   31 1
  32   19   20 ar
  33   19   21 1
  34   20   32 1

#	End of record

