#	Name: ASD01940103
#	Creating user name:	WinNT
#	Creation time:	15. 06. 2019 20:11

#	Modifying user name:	WinNT
#	Modification time:	15. 06. 2019 20:11

#	Program:	/corina/corina34_cracker 3.40 0067  02.08.2006

@<TRIPOS>MOLECULE
ASD01940103
  39   41    0    0    0
SMALL
NO_CHARGES


@<TRIPOS>ATOM
   1 C1            -0.2920     1.6992    -0.3011 C.3     
   2 C2            -0.3703     0.1724    -0.3603 C.3     
   3 C3             0.9895     0.8649    -0.2500 C.3     
   4 S4            -0.6346     2.6154    -1.8288 S.o2    
   5 O5             0.3939     2.3945    -2.7840 O.2     
   6 O6            -2.0046     2.4943    -2.1861 O.2     
   7 N7            -0.4625     4.2066    -1.4038 N.am    
   8 C8            -0.7437     2.3801     0.9925 C.3     
   9 C9             0.7687     4.6749    -0.9257 C.ar    
  10 C10            0.8061     5.6511     0.0691 C.ar    
  11 C11            2.0286     6.1110     0.5393 C.ar    
  12 C12            3.2069     5.5990     0.0190 C.ar    
  13 C13            3.1671     4.6304    -0.9687 C.ar    
  14 C14            1.9519     4.1643    -1.4370 C.ar    
  15 N15           -0.3874     6.1671     0.5927 N.pl3   
  16 C16           -0.3786     7.3791     1.2900 C.ar    
  17 C17           -0.2157     8.5780     0.6026 C.ar    
  18 C18           -0.2081     9.7739     1.2957 C.ar    
  19 C19           -0.3619     9.7787     2.6710 C.ar    
  20 C20           -0.5236     8.5884     3.3561 C.ar    
  21 C21           -0.5383     7.3896     2.6690 C.ar    
  22 I22           -0.3492    11.5935     3.7177 I       
  23 F23           -0.0647     8.5730    -0.7399 F       
  24 F24            4.3966     6.0467     0.4767 F       
  25 F25            2.0698     7.0571     1.5028 F       
  26 H26           -0.7436    -0.3471     0.5223 H       
  27 H27           -0.6277    -0.2816    -1.3172 H       
  28 H28            1.6267     0.8666    -1.1344 H       
  29 H29            1.5108     0.8011     0.7051 H       
  30 H30           -1.2139     4.8145    -1.4857 H       
  31 H31           -0.1303     2.0279     1.8218 H       
  32 H32           -0.6337     3.4599     0.8922 H       
  33 H33           -1.7888     2.1376     1.1849 H       
  34 H34            4.0874     4.2344    -1.3721 H       
  35 H35            1.9248     3.4049    -2.2045 H       
  36 H36           -1.2193     5.6833     0.4713 H       
  37 H37           -0.0818    10.7052     0.7636 H       
  38 H38           -0.6426     8.5960     4.4295 H       
  39 H39           -0.6691     6.4611     3.2049 H       
@<TRIPOS>BOND
   1    1    2 1
   2    1    3 1
   3    1    4 1
   4    1    8 1
   5    2    3 1
   6    2   26 1
   7    2   27 1
   8    3   28 1
   9    3   29 1
  10    4    5 2
  11    4    6 2
  12    4    7 am
  13    7    9 1
  14    7   30 1
  15    8   31 1
  16    8   32 1
  17    8   33 1
  18    9   10 ar
  19    9   14 ar
  20   10   11 ar
  21   10   15 1
  22   11   12 ar
  23   11   25 1
  24   12   13 ar
  25   12   24 1
  26   13   14 ar
  27   13   34 1
  28   14   35 1
  29   15   16 1
  30   15   36 1
  31   16   17 ar
  32   16   21 ar
  33   17   18 ar
  34   17   23 1
  35   18   19 ar
  36   18   37 1
  37   19   20 ar
  38   19   22 1
  39   20   21 ar
  40   20   38 1
  41   21   39 1

#	End of record

