#	Name: ASD01350032
#	Creating user name:	WinNT
#	Creation time:	15. 06. 2019 19:16

#	Modifying user name:	WinNT
#	Modification time:	15. 06. 2019 19:16

#	Program:	/corina/corina34_cracker 3.40 0067  02.08.2006

@<TRIPOS>MOLECULE
ASD01350032
  40   42    0    0    0
SMALL
NO_CHARGES


@<TRIPOS>ATOM
   1 C1             0.0152     1.7300     0.0541 C.3     
   2 C2             0.2109     0.2182     0.1849 C.3     
   3 C3             0.8647    -0.0911     1.5070 C.ar    
   4 C4             0.0913    -0.2263     2.6460 C.ar    
   5 C5             0.6917    -0.5104     3.8597 C.ar    
   6 C6             2.0648    -0.6590     3.9334 C.ar    
   7 C7             2.8373    -0.5235     2.7933 C.ar    
   8 C8             2.2365    -0.2454     1.5802 C.ar    
   9 Cl9            2.8190    -1.0148     5.4560 Cl      
  10 Cl10          -1.6320    -0.0391     2.5526 Cl      
  11 C11            1.3715     2.4052     0.0024 C.3     
  12 C12            1.3218     3.9185     0.0767 C.3     
  13 C13            0.6915     4.5079    -1.1876 C.3     
  14 C14           -0.8130     4.5185    -1.0129 C.ar    
  15 C15           -1.5155     3.3419    -1.0244 C.ar    
  16 C16           -0.7913     2.0251    -1.2130 C.3     
  17 C17           -1.4712     5.7238    -0.8422 C.ar    
  18 C18           -2.8448     5.7357    -0.6824 C.ar    
  19 C19           -3.5536     4.5487    -0.6940 C.ar    
  20 C20           -2.8901     3.3473    -0.8647 C.ar    
  21 N21            0.1155     2.1208    -2.3648 N.3     
  22 H22           -0.5345     2.0963     0.9211 H       
  23 H23           -0.7576    -0.2793     0.1332 H       
  24 H24            0.8459    -0.1375    -0.6265 H       
  25 H25            0.0884    -0.6157     4.7493 H       
  26 H26            3.9096    -0.6392     2.8508 H       
  27 H27            2.8398    -0.1401     0.6906 H       
  28 H28            1.9725     2.0379     0.8342 H       
  29 H29            1.8641     2.1208    -0.9274 H       
  30 H30            0.7310     4.2154     0.9433 H       
  31 H31            2.3351     4.3053     0.1855 H       
  32 H32            1.0503     5.5265    -1.3352 H       
  33 H33            0.9560     3.8946    -2.0490 H       
  34 H34           -1.5167     1.2286    -1.3792 H       
  35 H35           -0.9154     6.6497    -0.8335 H       
  36 H36           -3.3644     6.6730    -0.5488 H       
  37 H37           -4.6263     4.5595    -0.5692 H       
  38 H38           -3.4417     2.4189    -0.8742 H       
  39 H39            0.5678     1.2367    -2.5433 H       
  40 H40           -0.3739     2.4486    -3.1840 H       
@<TRIPOS>BOND
   1    1    2 1
   2    1   11 1
   3    1   16 1
   4    1   22 1
   5    2    3 1
   6    2   23 1
   7    2   24 1
   8    3    4 ar
   9    3    8 ar
  10    4    5 ar
  11    4   10 1
  12    5    6 ar
  13    5   25 1
  14    6    7 ar
  15    6    9 1
  16    7    8 ar
  17    7   26 1
  18    8   27 1
  19   11   12 1
  20   11   28 1
  21   11   29 1
  22   12   13 1
  23   12   30 1
  24   12   31 1
  25   13   14 1
  26   13   32 1
  27   13   33 1
  28   14   15 ar
  29   14   17 ar
  30   15   16 1
  31   15   20 ar
  32   16   21 1
  33   16   34 1
  34   17   18 ar
  35   17   35 1
  36   18   19 ar
  37   18   36 1
  38   19   20 ar
  39   19   37 1
  40   20   38 1
  41   21   39 1
  42   21   40 1

#	End of record

