#	Name: ASD02500141
#	Creating user name:	WinNT
#	Creation time:	15. 06. 2019 20:22

#	Modifying user name:	WinNT
#	Modification time:	15. 06. 2019 20:22

#	Program:	/corina/corina34_cracker 3.40 0067  02.08.2006

@<TRIPOS>MOLECULE
ASD02500141
  63   67    0    0    0
SMALL
NO_CHARGES


@<TRIPOS>ATOM
   1 O1            -4.9991    -8.0986    -0.5198 O.3     
   2 C2            -3.9069    -7.2921    -0.4235 C.ar    
   3 C3            -4.0189    -5.9994     0.0755 C.ar    
   4 O4            -5.2224    -5.5122     0.4838 O.3     
   5 C5            -6.3865    -6.2148     0.0351 C.3     
   6 C6            -6.1499    -7.7171     0.2418 C.3     
   7 C7            -2.8938    -5.1935     0.1614 C.ar    
   8 C8            -1.6639    -5.6756    -0.2459 C.ar    
   9 C9            -1.5522    -6.9615    -0.7401 C.ar    
  10 C10           -2.6701    -7.7697    -0.8294 C.ar    
  11 S11           -0.2363    -4.6487    -0.1354 S.o2    
  12 O12            0.7365    -5.2197    -0.9996 O.2     
  13 O13           -0.6949    -3.3094    -0.2586 O.2     
  14 N14            0.3583    -4.7997     1.4027 N.am    
  15 C15           -0.3991    -4.3690     2.4863 C.ar    
  16 C16           -0.5317    -5.1824     3.6084 C.ar    
  17 C17           -1.2806    -4.7589     4.6824 C.ar    
  18 C18           -1.9086    -3.5104     4.6459 C.ar    
  19 C19           -1.7735    -2.6960     3.5177 C.ar    
  20 C20           -1.0186    -3.1227     2.4493 C.ar    
  21 C21           -2.7125    -3.0536     5.7953 C.2     
  22 O22           -3.4363    -3.8362     6.3804 O.2     
  23 N23           -2.6449    -1.7688     6.1969 N.am    
  24 C24           -3.3633    -1.3142     7.3971 C.3     
  25 C25           -2.3771    -0.5665     8.3007 C.3     
  26 N26           -1.7210     0.4976     7.5292 N.3     
  27 C27           -0.9241    -0.0574     6.4270 C.3     
  28 C28           -1.8458    -0.7856     5.4500 C.3     
  29 C29           -0.9356     1.3068     8.3582 C.ar    
  30 C30           -1.5372     2.1016     9.3320 C.ar    
  31 C31           -0.7552     2.8999    10.1495 C.ar    
  32 C32            0.6198     2.9077     9.9987 C.ar    
  33 C33            1.2173     2.1200     9.0329 C.ar    
  34 C34            0.4440     1.3154     8.2165 C.ar    
  35 O35           -2.8894     2.0936     9.4786 O.3     
  36 C36           -3.4364     2.9334    10.4972 C.3     
  37 H37           -7.2538    -5.8962     0.6134 H       
  38 H38           -6.5541    -6.0109    -1.0225 H       
  39 H39           -7.0199    -8.2769    -0.1014 H       
  40 H40           -5.9751    -7.9198     1.2984 H       
  41 H41           -2.9786    -4.1881     0.5466 H       
  42 H42           -0.5899    -7.3355    -1.0569 H       
  43 H43           -2.5800    -8.7743    -1.2156 H       
  44 H44            1.2350    -5.1887     1.5478 H       
  45 H45           -0.0466    -6.1469     3.6358 H       
  46 H46           -1.3834    -5.3905     5.5524 H       
  47 H47           -2.2577    -1.7311     3.4865 H       
  48 H48           -0.9099    -2.4920     1.5794 H       
  49 H49           -4.1738    -0.6455     7.1074 H       
  50 H50           -3.7677    -2.1750     7.9298 H       
  51 H51           -2.9147    -0.1277     9.1413 H       
  52 H52           -1.6252    -1.2625     8.6728 H       
  53 H53           -0.4079     0.7507     5.9086 H       
  54 H54           -0.1924    -0.7604     6.8251 H       
  55 H55           -1.2474    -1.2969     4.6960 H       
  56 H56           -2.5076    -0.0650     4.9695 H       
  57 H57           -1.2189     3.5168    10.9050 H       
  58 H58            1.2281     3.5312    10.6371 H       
  59 H59            2.2912     2.1299     8.9183 H       
  60 H60            0.9138     0.6975     7.4656 H       
  61 H61           -3.0350     2.6375    11.4664 H       
  62 H62           -3.1699     3.9707    10.2949 H       
  63 H63           -4.5217     2.8324    10.5073 H       
@<TRIPOS>BOND
   1    1    2 1
   2    1    6 1
   3    2    3 ar
   4    2   10 ar
   5    3    4 1
   6    3    7 ar
   7    4    5 1
   8    5    6 1
   9    5   37 1
  10    5   38 1
  11    6   39 1
  12    6   40 1
  13    7    8 ar
  14    7   41 1
  15    8    9 ar
  16    8   11 1
  17    9   10 ar
  18    9   42 1
  19   10   43 1
  20   11   12 2
  21   11   13 2
  22   11   14 am
  23   14   15 1
  24   14   44 1
  25   15   16 ar
  26   15   20 ar
  27   16   17 ar
  28   16   45 1
  29   17   18 ar
  30   17   46 1
  31   18   19 ar
  32   18   21 1
  33   19   20 ar
  34   19   47 1
  35   20   48 1
  36   21   22 2
  37   21   23 am
  38   23   24 1
  39   23   28 1
  40   24   25 1
  41   24   49 1
  42   24   50 1
  43   25   26 1
  44   25   51 1
  45   25   52 1
  46   26   27 1
  47   26   29 1
  48   27   28 1
  49   27   53 1
  50   27   54 1
  51   28   55 1
  52   28   56 1
  53   29   30 ar
  54   29   34 ar
  55   30   31 ar
  56   30   35 1
  57   31   32 ar
  58   31   57 1
  59   32   33 ar
  60   32   58 1
  61   33   34 ar
  62   33   59 1
  63   34   60 1
  64   35   36 1
  65   36   61 1
  66   36   62 1
  67   36   63 1

#	End of record

