#	Name: ASD05313196
#	Creating user name:	WinNT
#	Creation time:	15. 06. 2019 20:58

#	Modifying user name:	WinNT
#	Modification time:	15. 06. 2019 20:58

#	Program:	/corina/corina34_cracker 3.40 0067  02.08.2006

@<TRIPOS>MOLECULE
ASD05313196
  37   40    0    0    0
SMALL
NO_CHARGES


@<TRIPOS>ATOM
   1 C1            -0.0625     0.8474     0.9879 C.2     
   2 C2             0.1147    -0.5949     0.5769 C.3     
   3 N3             0.9470     1.7528     1.0107 N.pl3   
   4 N4             1.4607    -0.7114    -0.0153 N.am    
   5 C5             2.5763    -0.0315     0.6604 C.3     
   6 C6             2.3339     1.4824     0.6360 C.3     
   7 N7            -0.8858     2.6841     1.6478 N.2     
   8 N8            -1.1458     1.4511     1.3774 N.2     
   9 C9             0.3947     2.9227     1.4399 C.2     
  10 S10            2.7635     4.5417     1.3750 S.3     
  11 N11            2.6466     6.1730     1.8372 N.2     
  12 C12            1.3956     6.3632     2.1517 C.2     
  13 N13            0.5773     5.3473     2.0515 N.2     
  14 C14            1.0938     4.2057     1.6364 C.2     
  15 C15            1.6626    -1.4210    -1.1432 C.2     
  16 O16            2.7580    -1.4257    -1.6705 O.2     
  17 C17            0.5529    -2.1932    -1.7386 C.ar    
  18 C18            0.3196    -2.1374    -3.1145 C.ar    
  19 C19           -0.7180    -2.8603    -3.6651 C.ar    
  20 C20           -1.5292    -3.6415    -2.8540 C.ar    
  21 C21           -1.3011    -3.6997    -1.4881 C.ar    
  22 C22           -0.2627    -2.9858    -0.9287 C.ar    
  23 C23            1.1994    -1.2886    -3.9957 C.3     
  24 F24           -2.5448    -4.3472    -3.3976 F       
  25 Cl25          -1.0101    -2.7926    -5.3750 Cl      
  26 H26            0.0350    -1.2429     1.4497 H       
  27 H27           -0.6408    -0.8672    -0.1601 H       
  28 H28            2.6391    -0.3735     1.6934 H       
  29 H29            3.5084    -0.2593     0.1434 H       
  30 H30            2.5213     1.8652    -0.3673 H       
  31 H31            3.0041     1.9700     1.3439 H       
  32 H32            1.0458     7.3292     2.4849 H       
  33 H33           -1.9355    -4.3089    -0.8614 H       
  34 H34           -0.0835    -3.0357     0.1352 H       
  35 H35            2.0895    -1.8535    -4.2726 H       
  36 H36            0.6514    -1.0099    -4.8958 H       
  37 H37            1.4936    -0.3883    -3.4562 H       
@<TRIPOS>BOND
   1    1    2 1
   2    1    3 1
   3    1    8 2
   4    2    4 1
   5    2   26 1
   6    2   27 1
   7    3    6 1
   8    3    9 1
   9    4    5 1
  10    4   15 am
  11    5    6 1
  12    5   28 1
  13    5   29 1
  14    6   30 1
  15    6   31 1
  16    7    8 1
  17    7    9 2
  18    9   14 1
  19   10   11 1
  20   10   14 1
  21   11   12 2
  22   12   13 1
  23   12   32 1
  24   13   14 2
  25   15   16 2
  26   15   17 1
  27   17   18 ar
  28   17   22 ar
  29   18   19 ar
  30   18   23 1
  31   19   20 ar
  32   19   25 1
  33   20   21 ar
  34   20   24 1
  35   21   22 ar
  36   21   33 1
  37   22   34 1
  38   23   35 1
  39   23   36 1
  40   23   37 1

#	End of record

