#	Name: ASD02500173
#	Creating user name:	WinNT
#	Creation time:	15. 06. 2019 20:22

#	Modifying user name:	WinNT
#	Modification time:	15. 06. 2019 20:22

#	Program:	/corina/corina34_cracker 3.40 0067  02.08.2006

@<TRIPOS>MOLECULE
ASD02500173
  64   68    0    0    0
SMALL
NO_CHARGES


@<TRIPOS>ATOM
   1 N1             0.4295     3.7289     0.8435 N.am    
   2 C2             0.0239     2.3376     0.5992 C.3     
   3 C3             0.6181     1.8818    -0.7393 C.3     
   4 N4             2.0492     2.2157    -0.7558 N.am    
   5 C5             2.4548     3.6070    -0.5114 C.3     
   6 C6             1.8606     4.0628     0.8270 C.3     
   7 C7            -0.4948     4.6826     1.0731 C.2     
   8 O8            -1.6755     4.3955     1.0793 O.2     
   9 O9            -0.1097     5.9538     1.2956 O.3     
  10 C10            2.9732     1.2630    -0.9904 C.2     
  11 C11            4.3948     1.6322    -1.1282 C.ar    
  12 C12            5.3916     0.7581    -0.6849 C.ar    
  13 C13            6.7168     1.1054    -0.8149 C.ar    
  14 C14            7.0652     2.3258    -1.3871 C.ar    
  15 C15            6.0748     3.1986    -1.8292 C.ar    
  16 C16            4.7480     2.8544    -1.7077 C.ar    
  17 O17            2.6351     0.0991    -1.0884 O.2     
  18 S18            8.9586     3.3210    -2.9373 S.o2    
  19 O19            8.0846     4.3950    -3.2563 O.2     
  20 O20           10.3625     3.4803    -2.7855 O.2     
  21 N21            8.4052     2.6738    -1.5170 N.am    
  22 N22           10.3212     0.6530    -3.1591 N.ar    
  23 C23           10.9980    -0.4686    -3.1117 C.ar    
  24 C24           10.8473    -1.4574    -4.0817 C.ar    
  25 C25            9.9755    -1.2703    -5.1162 C.ar    
  26 C26            9.2501    -0.0647    -5.1636 C.ar    
  27 C27            8.3365     0.1987    -6.1964 C.ar    
  28 C28            7.6542     1.3771    -6.2070 C.ar    
  29 C29            7.8501     2.3255    -5.2055 C.ar    
  30 C30            8.7286     2.1034    -4.1899 C.ar    
  31 C31            9.4520     0.8991    -4.1445 C.ar    
  32 C32           -1.0934     6.8834     1.4222 C.ar    
  33 C33           -1.9354     6.8584     2.5245 C.ar    
  34 C34           -3.0947     8.7758     1.6803 C.ar    
  35 C35           -1.2534     7.8622     0.4522 C.ar    
  36 C36           -2.9340     7.8045     2.6511 C.ar    
  37 C37           -2.2535     8.8061     0.5834 C.ar    
  38 C38           -4.1850     9.8067     1.8209 C.3     
  39 H39            0.3981     1.7013     1.4012 H       
  40 H40           -1.0635     2.2756     0.5568 H       
  41 H41            0.4925     0.8045    -0.8473 H       
  42 H42            0.1132     2.3953    -1.5575 H       
  43 H43            3.5422     3.6690    -0.4690 H       
  44 H44            2.0806     4.2433    -1.3134 H       
  45 H45            1.9862     5.1401     0.9351 H       
  46 H46            2.3655     3.5493     1.6452 H       
  47 H47            5.1220    -0.1886    -0.2406 H       
  48 H48            7.4874     0.4307    -0.4722 H       
  49 H49            6.3482     4.1449    -2.2720 H       
  50 H50            3.9803     3.5297    -2.0554 H       
  51 H51            9.0157     2.5375    -0.7757 H       
  52 H52           11.6911    -0.6303    -2.2994 H       
  53 H53           11.4197    -2.3709    -4.0157 H       
  54 H54            9.8465    -2.0260    -5.8769 H       
  55 H55            8.1759    -0.5289    -6.9782 H       
  56 H56            6.9516     1.5790    -7.0020 H       
  57 H57            7.2975     3.2529    -5.2366 H       
  58 H58           -1.8104     6.0996     3.2828 H       
  59 H59           -0.5963     7.8865    -0.4046 H       
  60 H60           -3.5899     7.7852     3.5088 H       
  61 H61           -2.3813     9.5656    -0.1737 H       
  62 H62           -3.8005    10.6705     2.3632 H       
  63 H63           -4.5200    10.1185     0.8316 H       
  64 H64           -5.0230     9.3768     2.3695 H       
@<TRIPOS>BOND
   1    1    2 1
   2    1    6 1
   3    1    7 am
   4    2    3 1
   5    2   39 1
   6    2   40 1
   7    3    4 1
   8    3   41 1
   9    3   42 1
  10    4    5 1
  11    4   10 am
  12    5    6 1
  13    5   43 1
  14    5   44 1
  15    6   45 1
  16    6   46 1
  17    7    8 2
  18    7    9 1
  19    9   32 1
  20   10   11 1
  21   10   17 2
  22   11   12 ar
  23   11   16 ar
  24   12   13 ar
  25   12   47 1
  26   13   14 ar
  27   13   48 1
  28   14   15 ar
  29   14   21 1
  30   15   16 ar
  31   15   49 1
  32   16   50 1
  33   18   19 2
  34   18   20 2
  35   18   21 am
  36   18   30 1
  37   21   51 1
  38   22   23 ar
  39   22   31 ar
  40   23   24 ar
  41   23   52 1
  42   24   25 ar
  43   24   53 1
  44   25   26 ar
  45   25   54 1
  46   26   27 ar
  47   26   31 ar
  48   27   28 ar
  49   27   55 1
  50   28   29 ar
  51   28   56 1
  52   29   30 ar
  53   29   57 1
  54   30   31 ar
  55   32   33 ar
  56   32   35 ar
  57   33   36 ar
  58   33   58 1
  59   34   36 ar
  60   34   37 ar
  61   34   38 1
  62   35   37 ar
  63   35   59 1
  64   36   60 1
  65   37   61 1
  66   38   62 1
  67   38   63 1
  68   38   64 1

#	End of record

