#	Name: ASD03331480
#	Creating user name:	WinNT
#	Creation time:	15. 06. 2019 20:39

#	Modifying user name:	WinNT
#	Modification time:	15. 06. 2019 20:39

#	Program:	/corina/corina34_cracker 3.40 0067  02.08.2006

@<TRIPOS>MOLECULE
ASD03331480
  69   71    0    0    0
SMALL
NO_CHARGES


@<TRIPOS>ATOM
   1 C1             0.6581     0.9695     1.7808 C.ar    
   2 C2             0.5229    -0.4502     1.3877 C.2     
   3 N3            -0.5330    -1.2558     1.6742 N.pl3   
   4 C4            -0.2690    -2.4833     1.1397 C.2     
   5 C5             0.9414    -2.4043     0.5336 C.2     
   6 N6             1.4016    -1.1426     0.6976 N.2     
   7 C7             1.6290    -3.4947    -0.1804 C.2     
   8 N8             2.8359    -3.2780    -0.7398 N.am    
   9 C9            -0.1670     1.5028     2.7713 C.ar    
  10 O10            1.1074    -4.5901    -0.2649 O.2     
  11 C11            3.5195    -4.3620    -1.4496 C.3     
  12 C12            3.0225    -4.4177    -2.8956 C.3     
  13 C13            5.0054    -4.1111    -1.4385 C.2     
  14 C14            3.2316    -3.0553    -3.5596 C.3     
  15 C15           -1.7614    -0.9423     2.4094 C.3     
  16 C16           -2.7938    -2.0352     2.1042 C.3     
  17 N17           -2.1904    -3.3604     2.3030 N.3     
  18 C18           -1.2035    -3.6603     1.2499 C.3     
  19 C19            3.8055    -5.4847    -3.6632 C.3     
  20 O20            5.4306    -2.9967    -1.2187 O.2     
  21 N21            5.8618    -5.1251    -1.6728 N.am    
  22 C22           -0.0365     2.8292     3.1344 C.ar    
  23 C23            0.9130     3.6295     2.5149 C.ar    
  24 C24            1.7335     3.1028     1.5306 C.ar    
  25 C25            1.6151     1.7778     1.1661 C.ar    
  26 F26            1.0374     4.9263     2.8725 F       
  27 F27           -0.8343     3.3479     4.0934 F       
  28 C28            7.3056    -4.9064    -1.5555 C.3     
  29 C29           -3.2222    -4.4039     2.3702 C.3     
  30 C30           -3.9936    -1.8772     3.0405 C.3     
  31 C31            7.6400    -4.4620    -0.1301 C.3     
  32 C32            8.0458    -6.2077    -1.8709 C.3     
  33 C33            7.7389    -3.8210    -2.5430 C.3     
  34 C34            1.5334    -4.7689    -2.9099 C.3     
  35 H35            3.2519    -2.4043    -0.6723 H       
  36 H36           -0.9064     0.8802     3.2529 H       
  37 H37            3.3074    -5.3102    -0.9557 H       
  38 H38            4.2924    -2.8051    -3.5494 H       
  39 H39            2.8775    -3.0950    -4.5898 H       
  40 H40            2.6738    -2.2951    -3.0128 H       
  41 H41           -1.5542    -0.9204     3.4793 H       
  42 H42           -2.1451     0.0262     2.0886 H       
  43 H43           -3.1272    -1.9403     1.0708 H       
  44 H44           -1.7143    -3.8154     0.2995 H       
  45 H45           -0.6402    -4.5545     1.5165 H       
  46 H46            3.6682    -6.4529    -3.1817 H       
  47 H47            3.4415    -5.5345    -4.6895 H       
  48 H48            4.8646    -5.2270    -3.6654 H       
  49 H49            5.5221    -5.9997    -1.9191 H       
  50 H50            2.4704     3.7299     1.0510 H       
  51 H51            2.2556     1.3691     0.3986 H       
  52 H52           -3.7896    -4.4143     1.4396 H       
  53 H53           -2.7483    -5.3744     2.5176 H       
  54 H54           -3.8942    -4.1974     3.2031 H       
  55 H55           -4.4458    -0.8970     2.8892 H       
  56 H56           -4.7278    -2.6533     2.8244 H       
  57 H57           -3.6618    -1.9686     4.0747 H       
  58 H58            7.3313    -5.2353     0.5733 H       
  59 H59            8.7142    -4.2993    -0.0429 H       
  60 H60            7.1126    -3.5349     0.0945 H       
  61 H61            7.8076    -6.5243    -2.8863 H       
  62 H62            9.1201    -6.0450    -1.7836 H       
  63 H63            7.7371    -6.9810    -1.1674 H       
  64 H64            7.2115    -2.8939    -2.3183 H       
  65 H65            8.8131    -3.6583    -2.4557 H       
  66 H66            7.5007    -4.1376    -3.5584 H       
  67 H67            0.9756    -4.0087    -2.3630 H       
  68 H68            1.1793    -4.8086    -3.9400 H       
  69 H69            1.3844    -5.7395    -2.4368 H       
@<TRIPOS>BOND
   1    1    2 1
   2    1    9 ar
   3    1   25 ar
   4    2    3 1
   5    2    6 2
   6    3    4 1
   7    3   15 1
   8    4    5 2
   9    4   18 1
  10    5    6 1
  11    5    7 1
  12    7    8 am
  13    7   10 2
  14    8   11 1
  15    8   35 1
  16    9   22 ar
  17    9   36 1
  18   11   12 1
  19   11   13 1
  20   11   37 1
  21   12   14 1
  22   12   19 1
  23   12   34 1
  24   13   20 2
  25   13   21 am
  26   14   38 1
  27   14   39 1
  28   14   40 1
  29   15   16 1
  30   15   41 1
  31   15   42 1
  32   16   17 1
  33   16   30 1
  34   16   43 1
  35   17   18 1
  36   17   29 1
  37   18   44 1
  38   18   45 1
  39   19   46 1
  40   19   47 1
  41   19   48 1
  42   21   28 1
  43   21   49 1
  44   22   23 ar
  45   22   27 1
  46   23   24 ar
  47   23   26 1
  48   24   25 ar
  49   24   50 1
  50   25   51 1
  51   28   31 1
  52   28   32 1
  53   28   33 1
  54   29   52 1
  55   29   53 1
  56   29   54 1
  57   30   55 1
  58   30   56 1
  59   30   57 1
  60   31   58 1
  61   31   59 1
  62   31   60 1
  63   32   61 1
  64   32   62 1
  65   32   63 1
  66   33   64 1
  67   33   65 1
  68   33   66 1
  69   34   67 1
  70   34   68 1
  71   34   69 1

#	End of record

