#	Name: ASD03540226
#	Creating user name:	WinNT
#	Creation time:	15. 06. 2019 20:42

#	Modifying user name:	WinNT
#	Modification time:	15. 06. 2019 20:42

#	Program:	/corina/corina34_cracker 3.40 0067  02.08.2006

@<TRIPOS>MOLECULE
ASD03540226
  39   41    0    0    0
SMALL
NO_CHARGES


@<TRIPOS>ATOM
   1 C1            -0.0161     1.3365     0.0094 C.2     
   2 N2             0.0021    -0.0041     0.0020 N.am    
   3 C3             1.1931    -0.7075    -0.0132 C.2     
   4 C4             2.3928    -0.0051    -0.0209 C.2     
   5 C5             2.3194     1.4734    -0.0115 C.2     
   6 N6             1.1110     2.0661     0.0025 N.am    
   7 C7             3.5129    -0.8381    -0.0361 C.2     
   8 C8             3.2256    -2.1516    -0.0404 C.2     
   9 S9             1.4874    -2.3902    -0.0250 S.3     
  10 C10            4.2183    -3.2259    -0.0565 C.2     
  11 O11            5.4048    -2.9577    -0.0671 O.2     
  12 O12            3.8179    -4.5143    -0.0595 O.3     
  13 C13            1.0243     3.5285     0.0113 C.3     
  14 C14            1.0086     4.0108     1.4019 C.1     
  15 C15            0.9960     4.3954     2.5111 C.1     
  16 O16            3.3358     2.1426    -0.0175 O.2     
  17 O17           -1.0880     1.9101     0.0175 O.2     
  18 C18           -1.2652    -0.7390     0.0107 C.3     
  19 C19            4.8413    -5.5116    -0.0754 C.3     
  20 C20            4.2094    -6.8798    -0.0765 C.ar    
  21 C21            3.9074    -7.5007    -1.2740 C.ar    
  22 C22            3.3277    -8.7556    -1.2750 C.ar    
  23 C23            3.0505    -9.3898    -0.0785 C.ar    
  24 C24            3.3533    -8.7693     1.1191 C.ar    
  25 C25            3.9370    -7.5162     1.1200 C.ar    
  26 H26            4.5244    -0.4597    -0.0438 H       
  27 H27            1.8863     3.9467    -0.5086 H       
  28 H28            0.1095     3.8412    -0.4921 H       
  29 H29            0.9848     4.7395     3.5030 H       
  30 H30           -2.0950    -0.0322     0.0228 H       
  31 H31           -1.3307    -1.3609    -0.8820 H       
  32 H32           -1.3130    -1.3705     0.8978 H       
  33 H33            5.4510    -5.3923    -0.9710 H       
  34 H34            5.4691    -5.4021     0.8089 H       
  35 H35            4.1240    -7.0051    -2.2089 H       
  36 H36            3.0911    -9.2404    -2.2107 H       
  37 H37            2.5970   -10.3700    -0.0792 H       
  38 H38            3.1364    -9.2647     2.0539 H       
  39 H39            4.1770    -7.0330     2.0556 H       
@<TRIPOS>BOND
   1    1    2 am
   2    1    6 am
   3    1   17 2
   4    2    3 1
   5    2   18 1
   6    3    4 2
   7    3    9 1
   8    4    5 1
   9    4    7 1
  10    5    6 am
  11    5   16 2
  12    6   13 1
  13    7    8 2
  14    7   26 1
  15    8    9 1
  16    8   10 1
  17   10   11 2
  18   10   12 1
  19   12   19 1
  20   13   14 1
  21   13   27 1
  22   13   28 1
  23   14   15 3
  24   15   29 1
  25   18   30 1
  26   18   31 1
  27   18   32 1
  28   19   20 1
  29   19   33 1
  30   19   34 1
  31   20   21 ar
  32   20   25 ar
  33   21   22 ar
  34   21   35 1
  35   22   23 ar
  36   22   36 1
  37   23   24 ar
  38   23   37 1
  39   24   25 ar
  40   24   38 1
  41   25   39 1

#	End of record

