#	Name: ASD01814689
#	Creating user name:	WinNT
#	Creation time:	15. 06. 2019 19:32

#	Modifying user name:	WinNT
#	Modification time:	15. 06. 2019 19:32

#	Program:	/corina/corina34_cracker 3.40 0067  02.08.2006

@<TRIPOS>MOLECULE
ASD01814689
  58   62    0    0    0
SMALL
NO_CHARGES


@<TRIPOS>ATOM
   1 N1            -0.6405     1.9608    -2.1324 N.2     
   2 C2            -0.8001     0.8320    -2.7822 C.2     
   3 C3             0.2188     0.3442    -3.6133 C.2     
   4 C4             1.3699     1.0482    -3.7398 C.2     
   5 N5             1.5110     2.2198    -3.0529 N.pl3   
   6 C6             0.4930     2.6653    -2.2497 C.2     
   7 N7             2.5506     3.1523    -2.9758 N.2     
   8 C8             2.1910     4.1259    -2.1641 C.2     
   9 C9             0.9171     3.8634    -1.6881 C.2     
  10 C10            2.6721     5.4256    -1.5672 C.3     
  11 N11            1.6087     5.9383    -0.6977 N.am    
  12 C12            0.5041     4.9757    -0.7588 C.3     
  13 C13            1.6412     7.0769     0.0228 C.2     
  14 C14            2.8749     7.8827     0.0728 C.ar    
  15 C15            2.8107     9.2802    -0.0424 C.ar    
  16 C16            4.1143     7.2606     0.2408 C.ar    
  17 C17            5.2636     8.0193     0.2867 C.ar    
  18 C18            5.1976     9.3982     0.1669 C.ar    
  19 C19            3.9804    10.0282     0.0062 C.ar    
  20 O20            0.6530     7.4395     0.6316 O.2     
  21 N21            1.5845     9.9118    -0.2046 N.3     
  22 C22            1.2986    10.7404     0.8873 C.3     
  23 C23            0.0354    -0.9524    -4.3591 C.3     
  24 C24            2.4795     0.5444    -4.6265 C.3     
  25 C25           -0.1381    11.2976     0.8316 C.3     
  26 N26           -0.1760    12.3990    -0.1043 N.3     
  27 C27           -0.5837    12.0080    -1.4729 C.3     
  28 C28            0.0595    10.6865    -1.9225 C.3     
  29 C29            1.5085    10.5932    -1.5151 C.3     
  30 C30           -1.0157    13.4923     0.4031 C.3     
  31 H31           -1.7200     0.2760    -2.6763 H       
  32 H32            3.5754     5.2516    -0.9826 H       
  33 H33            2.8778     6.1431    -2.3616 H       
  34 H34           -0.3900     5.4661    -1.1439 H       
  35 H35            0.3071     4.5731     0.2347 H       
  36 H36            4.1717     6.1862     0.3350 H       
  37 H37            6.2210     7.5367     0.4170 H       
  38 H38            6.1041     9.9841     0.2042 H       
  39 H39            3.9370    11.1037    -0.0819 H       
  40 H40            1.4213    10.1688     1.8073 H       
  41 H41            2.0016    11.5734     0.8933 H       
  42 H42           -0.9463    -1.3672    -4.1306 H       
  43 H43            0.1119    -0.7691    -5.4308 H       
  44 H44            0.8080    -1.6587    -4.0552 H       
  45 H45            2.1792    -0.3981    -5.0842 H       
  46 H46            2.6832     1.2784    -5.4061 H       
  47 H47            3.3786     0.3886    -4.0303 H       
  48 H48           -0.8210    10.5146     0.5019 H       
  49 H49           -0.4322    11.6486     1.8207 H       
  50 H50           -1.6679    11.9000    -1.5007 H       
  51 H51           -0.2917    12.7964    -2.1667 H       
  52 H52           -0.4879     9.8564    -1.4761 H       
  53 H53           -0.0087    10.6107    -3.0077 H       
  54 H54            1.9308    11.5947    -1.4322 H       
  55 H55            2.0618    10.0197    -2.2588 H       
  56 H56           -0.6532    13.8045     1.3825 H       
  57 H57           -0.9707    14.3351    -0.2866 H       
  58 H58           -2.0465    13.1485     0.4899 H       
@<TRIPOS>BOND
   1    1    2 2
   2    1    6 1
   3    2    3 1
   4    2   31 1
   5    3    4 2
   6    3   23 1
   7    4    5 1
   8    4   24 1
   9    5    7 1
  10    5    6 1
  11    6    9 2
  12    7    8 2
  13    8   10 1
  14    8    9 1
  15    9   12 1
  16   10   11 1
  17   10   32 1
  18   10   33 1
  19   11   12 1
  20   11   13 am
  21   12   34 1
  22   12   35 1
  23   13   14 1
  24   13   20 2
  25   14   16 ar
  26   14   15 ar
  27   15   19 ar
  28   15   21 1
  29   16   17 ar
  30   16   36 1
  31   17   18 ar
  32   17   37 1
  33   18   19 ar
  34   18   38 1
  35   19   39 1
  36   21   22 1
  37   21   29 1
  38   22   25 1
  39   22   40 1
  40   22   41 1
  41   23   42 1
  42   23   43 1
  43   23   44 1
  44   24   45 1
  45   24   46 1
  46   24   47 1
  47   25   26 1
  48   25   48 1
  49   25   49 1
  50   26   27 1
  51   26   30 1
  52   27   28 1
  53   27   50 1
  54   27   51 1
  55   28   29 1
  56   28   52 1
  57   28   53 1
  58   29   54 1
  59   29   55 1
  60   30   56 1
  61   30   57 1
  62   30   58 1

#	End of record

