#	Name: ASD01916672
#	Creating user name:	WinNT
#	Creation time:	15. 06. 2019 20:07

#	Modifying user name:	WinNT
#	Modification time:	15. 06. 2019 20:07

#	Program:	/corina/corina34_cracker 3.40 0067  02.08.2006

@<TRIPOS>MOLECULE
ASD01916672
  38   40    0    0    0
SMALL
NO_CHARGES


@<TRIPOS>ATOM
   1 C1            -0.0168     1.3912     0.0097 C.ar    
   2 C2             0.0021    -0.0041     0.0020 C.ar    
   3 C3             1.2204    -0.6594    -0.0131 C.ar    
   4 C4             2.3820     0.1007    -0.0201 C.ar    
   5 C5             2.2905     1.4803    -0.0118 C.ar    
   6 N6             1.1180     2.0808     0.0026 N.ar    
   7 C7            -1.2697     2.0847     0.0194 C.1     
   8 C8            -2.2967     2.6533     0.0273 C.1     
   9 C9            -3.5846     3.3662     0.0372 C.3     
  10 C10           -3.3321     4.8752     0.0443 C.3     
  11 O11           -5.3503     5.9950    -1.0156 O.3     
  12 N12           -6.3668     6.5564    -0.6654 N.2     
  13 C13           -6.4342     6.5904     0.6405 C.2     
  14 N14           -5.3260     5.9761     1.1134 N.2     
  15 C15           -4.6505     5.6051     0.0544 C.2     
  16 C16           -7.5219     7.1909     1.4509 C.ar    
  17 C17           -8.6096     7.7945     0.8219 C.ar    
  18 C18           -9.6191     8.3519     1.5777 C.ar    
  19 C19           -9.5530     8.3123     2.9642 C.ar    
  20 C20           -8.4707     7.7116     3.5935 C.ar    
  21 C21           -7.4611     7.1475     2.8429 C.ar    
  22 O22          -10.5488     8.8626     3.7062 O.3     
  23 C23          -10.4169     8.7865     5.1271 C.3     
  24 H24           -0.9212    -0.5644     0.0082 H       
  25 H25            1.2668    -1.7384    -0.0190 H       
  26 H26            3.3484    -0.3812    -0.0315 H       
  27 H27            3.1928     2.0739    -0.0172 H       
  28 H28           -4.1555     3.0975    -0.8515 H       
  29 H29           -4.1471     3.0878     0.9284 H       
  30 H30           -2.7611     5.1440     0.9330 H       
  31 H31           -2.7695     5.1536    -0.8469 H       
  32 H32           -8.6614     7.8260    -0.2564 H       
  33 H33          -10.4619     8.8200     1.0909 H       
  34 H34           -8.4219     7.6822     4.6720 H       
  35 H35           -6.6218     6.6765     3.3329 H       
  36 H36          -10.3679     7.7411     5.4320 H       
  37 H37           -9.5051     9.2979     5.4353 H       
  38 H38          -11.2772     9.2623     5.5978 H       
@<TRIPOS>BOND
   1    1    2 ar
   2    1    6 ar
   3    1    7 1
   4    2    3 ar
   5    2   24 1
   6    3    4 ar
   7    3   25 1
   8    4    5 ar
   9    4   26 1
  10    5    6 ar
  11    5   27 1
  12    7    8 3
  13    8    9 1
  14    9   10 1
  15    9   28 1
  16    9   29 1
  17   10   15 1
  18   10   30 1
  19   10   31 1
  20   11   12 1
  21   11   15 1
  22   12   13 2
  23   13   14 1
  24   13   16 1
  25   14   15 2
  26   16   17 ar
  27   16   21 ar
  28   17   18 ar
  29   17   32 1
  30   18   19 ar
  31   18   33 1
  32   19   20 ar
  33   19   22 1
  34   20   21 ar
  35   20   34 1
  36   21   35 1
  37   22   23 1
  38   23   36 1
  39   23   37 1
  40   23   38 1

#	End of record

