#	Name: ASD03330999
#	Creating user name:	WinNT
#	Creation time:	15. 06. 2019 20:38

#	Modifying user name:	WinNT
#	Modification time:	15. 06. 2019 20:38

#	Program:	/corina/corina34_cracker 3.40 0067  02.08.2006

@<TRIPOS>MOLECULE
ASD03330999
  63   65    0    0    0
SMALL
NO_CHARGES


@<TRIPOS>ATOM
   1 N1             0.0597     1.1547    -0.7664 N.pl3   
   2 C2             0.0642    -0.1788    -0.4992 C.2     
   3 C3             1.2855    -1.0114    -0.2085 C.3     
   4 N4             2.1194    -0.3145     0.7832 N.3     
   5 C5             3.0709     0.5896     0.1344 C.3     
   6 C6             2.4732     1.1929    -1.1335 C.3     
   7 C7             1.2383     2.0258    -0.7790 C.3     
   8 C8            -1.2336     1.5194    -1.0042 C.2     
   9 N9            -1.9984     0.4609    -0.8719 N.2     
  10 C10           -1.2279    -0.6039    -0.5574 C.2     
  11 C11           -1.7013    -1.9790    -0.3207 C.2     
  12 O12           -0.9062    -2.8567    -0.0438 O.2     
  13 N13           -3.0155    -2.2641    -0.4110 N.am    
  14 C14            2.8134    -1.2726     1.6539 C.3     
  15 C15           -4.7916    -3.8445    -0.8978 C.2     
  16 C16           -3.4862    -3.6313    -0.1757 C.3     
  17 C17           -3.6921    -3.8487     1.3248 C.3     
  18 C18           -4.7883    -2.9088     1.8306 C.3     
  19 O19           -5.4265    -2.8913    -1.2969 O.2     
  20 C20           -4.1073    -5.2994     1.5777 C.3     
  21 C21           -2.3865    -3.5551     2.0665 C.3     
  22 N22           -5.2535    -5.0943    -1.1003 N.am    
  23 C23           -6.5603    -5.2993    -1.7301 C.3     
  24 C24           -6.8431    -6.7988    -1.8415 C.3     
  25 C25           -1.6962     2.8800    -1.3523 C.ar    
  26 C26           -2.5968     3.0670    -2.4049 C.ar    
  27 C27           -3.0254     4.3409    -2.7245 C.ar    
  28 C28           -2.5638     5.4303    -2.0038 C.ar    
  29 C29           -1.6704     5.2491    -0.9597 C.ar    
  30 C30           -1.2400     3.9815    -0.6278 C.ar    
  31 F31           -2.9858     6.6741    -2.3201 F       
  32 F32           -3.0467     2.0047    -3.1080 F       
  33 H33            0.9803    -1.9797     0.1881 H       
  34 H34            1.8550    -1.1557    -1.1266 H       
  35 H35            3.3303     1.3920     0.8250 H       
  36 H36            3.9729     0.0349    -0.1238 H       
  37 H37            3.2142     1.8306    -1.6155 H       
  38 H38            2.1868     0.3924    -1.8155 H       
  39 H39            1.1029     2.8114    -1.5224 H       
  40 H40            1.3711     2.4735     0.2059 H       
  41 H41           -3.6496    -1.5641    -0.6318 H       
  42 H42            3.3985    -1.9606     1.0436 H       
  43 H43            3.4763    -0.7341     2.3312 H       
  44 H44            2.0805    -1.8342     2.2331 H       
  45 H45           -2.7456    -4.3396    -0.5471 H       
  46 H46           -5.7185    -3.1180     1.3022 H       
  47 H47           -4.9350    -3.0637     2.8995 H       
  48 H48           -4.4925    -1.8753     1.6503 H       
  49 H49           -3.3164    -5.9681     1.2382 H       
  50 H50           -4.2761    -5.4483     2.6442 H       
  51 H51           -5.0252    -5.5152     1.0310 H       
  52 H52           -2.0907    -2.5216     1.8862 H       
  53 H53           -2.5331    -3.7100     3.1354 H       
  54 H54           -1.6055    -4.2247     1.7061 H       
  55 H55           -4.7207    -5.8582    -0.8290 H       
  56 H56           -7.3337    -4.8277    -1.1239 H       
  57 H57           -6.5575    -4.8551    -2.7255 H       
  58 H58           -6.0697    -7.2703    -2.4477 H       
  59 H59           -6.8459    -7.2429    -0.8462 H       
  60 H60           -7.8154    -6.9512    -2.3101 H       
  61 H61           -3.7209     4.4877    -3.5376 H       
  62 H62           -1.3139     6.1024    -0.4018 H       
  63 H63           -0.5476     3.8422     0.1892 H       
@<TRIPOS>BOND
   1    1    2 1
   2    1    7 1
   3    1    8 1
   4    2    3 1
   5    2   10 2
   6    3    4 1
   7    3   33 1
   8    3   34 1
   9    4    5 1
  10    4   14 1
  11    5    6 1
  12    5   35 1
  13    5   36 1
  14    6    7 1
  15    6   37 1
  16    6   38 1
  17    7   39 1
  18    7   40 1
  19    8    9 2
  20    8   25 1
  21    9   10 1
  22   10   11 1
  23   11   12 2
  24   11   13 am
  25   13   16 1
  26   13   41 1
  27   14   42 1
  28   14   43 1
  29   14   44 1
  30   15   19 2
  31   15   22 am
  32   15   16 1
  33   16   17 1
  34   16   45 1
  35   17   18 1
  36   17   20 1
  37   17   21 1
  38   18   46 1
  39   18   47 1
  40   18   48 1
  41   20   49 1
  42   20   50 1
  43   20   51 1
  44   21   52 1
  45   21   53 1
  46   21   54 1
  47   22   23 1
  48   22   55 1
  49   23   24 1
  50   23   56 1
  51   23   57 1
  52   24   58 1
  53   24   59 1
  54   24   60 1
  55   25   26 ar
  56   25   30 ar
  57   26   27 ar
  58   26   32 1
  59   27   28 ar
  60   27   61 1
  61   28   29 ar
  62   28   31 1
  63   29   30 ar
  64   29   62 1
  65   30   63 1

#	End of record

