#	Name: ASD00170142
#	Creating user name:	WinNT
#	Creation time:	15. 06. 2019 18:31

#	Modifying user name:	WinNT
#	Modification time:	15. 06. 2019 18:31

#	Program:	/corina/corina34_cracker 3.40 0067  02.08.2006

@<TRIPOS>MOLECULE
ASD00170142
  42   46    0    0    0
SMALL
NO_CHARGES


@<TRIPOS>ATOM
   1 C1            -0.0182     1.4913     0.0102 C.2     
   2 C2             0.0021    -0.0041     0.0020 C.ar    
   3 C3             1.3192    -0.4523    -0.0130 C.ar    
   4 C4             2.1960     0.7739    -0.0148 C.3     
   5 C5             1.2474     1.9527     0.0006 C.2     
   6 S6             1.2222     3.7155     0.0099 S.3     
   7 C7            -0.5366     3.6918     0.0263 C.2     
   8 N8            -0.9504     2.4700     0.0195 N.2     
   9 C9            -1.0456    -0.9281     0.0071 C.ar    
  10 C10           -0.7711    -2.2772    -0.0028 C.ar    
  11 C11            0.5514    -2.7234    -0.0178 C.ar    
  12 C12            1.5981    -1.7989    -0.0229 C.ar    
  13 N13           -1.3514     4.8121     0.0397 N.pl3   
  14 C14            0.8442    -4.1751    -0.0285 C.ar    
  15 C15            0.2274    -5.0277     0.9036 C.ar    
  16 C16            0.5118    -6.3921     0.8819 C.ar    
  17 C17            1.3939    -6.8978    -0.0505 C.ar    
  18 C18            2.0016    -6.0574    -0.9688 C.ar    
  19 C19            1.7280    -4.7047    -0.9657 C.ar    
  20 C20           -0.7175    -4.4801     1.9018 C.2     
  21 C21           -0.2384    -3.7750     2.9785 C.2     
  22 C22           -1.0722    -3.2242     3.9683 C.2     
  23 C23           -2.4021    -3.3480     3.9323 C.2     
  24 C24           -3.0393    -4.1062     2.7885 C.3     
  25 C25           -2.1145    -4.6827     1.7359 C.2     
  26 S26           -2.7300    -5.5581     0.3995 S.2     
  27 H27            2.8274     0.7869     0.8736 H       
  28 H28            2.8103     0.7965    -0.9148 H       
  29 H29           -2.0695    -0.5847     0.0190 H       
  30 H30           -1.5808    -2.9918     0.0014 H       
  31 H31            2.6227    -2.1401    -0.0348 H       
  32 H32           -0.9574     5.6984     0.0405 H       
  33 H33           -2.3160     4.7101     0.0483 H       
  34 H34            0.0420    -7.0531     1.5951 H       
  35 H35            1.6123    -7.9554    -0.0643 H       
  36 H36            2.6908    -6.4638    -1.6942 H       
  37 H37            2.2055    -4.0556    -1.6847 H       
  38 H38            0.8289    -3.6374     3.0698 H       
  39 H39           -0.6216    -2.6822     4.7866 H       
  40 H40           -3.0137    -2.9133     4.7090 H       
  41 H41           -3.6203    -4.9252     3.2124 H       
  42 H42           -3.7342    -3.4328     2.2867 H       
@<TRIPOS>BOND
   1    1    2 1
   2    1    5 2
   3    1    8 1
   4    2    3 ar
   5    2    9 ar
   6    3    4 1
   7    3   12 ar
   8    4    5 1
   9    4   27 1
  10    4   28 1
  11    5    6 1
  12    6    7 1
  13    7    8 2
  14    7   13 1
  15    9   10 ar
  16    9   29 1
  17   10   11 ar
  18   10   30 1
  19   11   12 ar
  20   11   14 1
  21   12   31 1
  22   13   32 1
  23   13   33 1
  24   14   15 ar
  25   14   19 ar
  26   15   16 ar
  27   15   20 1
  28   16   17 ar
  29   16   34 1
  30   17   18 ar
  31   17   35 1
  32   18   19 ar
  33   18   36 1
  34   19   37 1
  35   20   21 2
  36   20   25 1
  37   21   22 1
  38   21   38 1
  39   22   23 2
  40   22   39 1
  41   23   24 1
  42   23   40 1
  43   24   25 1
  44   24   41 1
  45   24   42 1
  46   25   26 2

#	End of record

