#	Name: ASD01913440
#	Creating user name:	WinNT
#	Creation time:	15. 06. 2019 20:01

#	Modifying user name:	WinNT
#	Modification time:	15. 06. 2019 20:01

#	Program:	/corina/corina34_cracker 3.40 0067  02.08.2006

@<TRIPOS>MOLECULE
ASD01913440
  36   38    0    0    0
SMALL
NO_CHARGES


@<TRIPOS>ATOM
   1 C1             0.8650     0.0939    -1.0345 C.ar    
   2 C2             0.0086    -0.0109     0.0568 C.ar    
   3 C3             0.3586     0.6059     1.2496 C.ar    
   4 N4             1.4851     1.2826     1.3516 N.ar    
   5 C5             2.3186     1.4010     0.3364 C.ar    
   6 C6             2.0390     0.8143    -0.8834 C.ar    
   7 C7            -1.0815    -2.0579    -0.1447 C.ar    
   8 C8            -2.2451    -2.8174    -0.1654 C.ar    
   9 N9            -2.1758    -4.1324    -0.2689 N.ar    
  10 C10           -1.0014    -4.7299    -0.3531 C.ar    
  11 C11            0.1672    -3.9751    -0.3330 C.ar    
  12 N12            0.0999    -2.6541    -0.2290 N.ar    
  13 N13            1.4062    -4.6055    -0.4213 N.am    
  14 C14            2.5321    -3.8697    -0.5071 C.2     
  15 O15           -1.1544    -0.7069    -0.0439 O.3     
  16 C16            3.8367    -4.5351    -0.7289 C.ar    
  17 C17            4.9963    -3.7691    -0.8166 C.ar    
  18 C18            6.2106    -4.4055    -1.0239 C.ar    
  19 C19            6.2228    -5.7862    -1.1363 C.ar    
  20 C20            5.0290    -6.4869    -1.0390 C.ar    
  21 N21            3.8911    -5.8575    -0.8369 N.ar    
  22 O22            2.4770    -2.6603    -0.4025 O.2     
  23 Cl23           5.0375    -8.2172    -1.1796 Cl      
  24 C24            3.5930     2.1866     0.5088 C.3     
  25 H25            0.6229    -0.3785    -1.9750 H       
  26 H26           -0.2990     0.5309     2.1031 H       
  27 H27            2.7276     0.9162    -1.7092 H       
  28 H28           -3.2073    -2.3318    -0.0964 H       
  29 H29           -0.9478    -5.8053    -0.4373 H       
  30 H30            1.4587    -5.5741    -0.4211 H       
  31 H31            4.9504    -2.6940    -0.7247 H       
  32 H32            7.1264    -3.8376    -1.0965 H       
  33 H33            7.1521    -6.3120    -1.2985 H       
  34 H34            4.3864     1.5216     0.8498 H       
  35 H35            3.8770     2.6320    -0.4447 H       
  36 H36            3.4373     2.9744     1.2458 H       
@<TRIPOS>BOND
   1    1    2 ar
   2    1    6 ar
   3    1   25 1
   4    2    3 ar
   5    2   15 1
   6    3    4 ar
   7    3   26 1
   8    4    5 ar
   9    5    6 ar
  10    5   24 1
  11    6   27 1
  12    7    8 ar
  13    7   12 ar
  14    7   15 1
  15    8    9 ar
  16    8   28 1
  17    9   10 ar
  18   10   11 ar
  19   10   29 1
  20   11   12 ar
  21   11   13 1
  22   13   14 am
  23   13   30 1
  24   14   16 1
  25   14   22 2
  26   16   17 ar
  27   16   21 ar
  28   17   18 ar
  29   17   31 1
  30   18   19 ar
  31   18   32 1
  32   19   20 ar
  33   19   33 1
  34   20   21 ar
  35   20   23 1
  36   24   34 1
  37   24   35 1
  38   24   36 1

#	End of record

