#	Name: ASD00844968
#	Creating user name:	WinNT
#	Creation time:	15. 06. 2019 18:51

#	Modifying user name:	WinNT
#	Modification time:	15. 06. 2019 18:51

#	Program:	/corina/corina34_cracker 3.40 0067  02.08.2006

@<TRIPOS>MOLECULE
ASD00844968
  94   99    0    0    0
SMALL
NO_CHARGES


@<TRIPOS>ATOM
   1 F1             5.6867    -2.0421    -2.1412 F       
   2 C2             0.6729     1.3179    -0.6083 C.ar    
   3 C3             0.9458    -0.0222    -0.8396 C.ar    
   4 C4             0.8505    -0.9366     0.1996 C.ar    
   5 C5             0.4843    -0.5106     1.4614 C.ar    
   6 C6             0.2123     0.8260     1.6893 C.ar    
   7 C7             0.3070     1.7391     0.6557 C.ar    
   8 C8             1.1458    -2.3935    -0.0483 C.3     
   9 C9             0.8506    -3.2126     1.1901 C.2     
  10 C10            0.3335    -2.9088    -1.2380 C.3     
  11 C11           -1.1287    -2.6251    -1.0085 C.2     
  12 N12           -2.0455    -3.0483    -1.9012 N.am    
  13 O13           -1.4804    -2.0159    -0.0205 O.2     
  14 C14           -3.4597    -2.6778    -1.7547 C.3     
  15 C15           -4.3083    -3.9530    -1.7763 C.3     
  16 C16           -3.9951    -4.7479    -3.0460 C.3     
  17 C17           -2.5185    -5.1503    -3.0468 C.3     
  18 C18           -1.6487    -3.8840    -3.0426 C.3     
  19 N19           -4.8313    -5.9550    -3.0865 N.3     
  20 C20           -4.6442    -6.6832    -4.3491 C.3     
  21 C21           -5.4695    -7.9717    -4.3189 C.3     
  22 N22           -6.8857    -7.6386    -4.1114 N.3     
  23 C23           -7.0728    -6.9103    -2.8487 C.3     
  24 C24           -6.2475    -5.6218    -2.8789 C.3     
  25 C25           -7.7219    -8.8456    -4.1518 C.3     
  26 O26           -0.2264    -3.3317     1.7351 O.2     
  27 N27            2.0055    -3.7834     1.5718 N.am    
  28 C28            2.6244    -2.6015    -0.2831 C.ar    
  29 C29            3.0660    -3.4451     0.7285 C.ar    
  30 C30            3.4945    -2.1317    -1.2412 C.ar    
  31 C31            4.8296    -2.5004    -1.2029 C.ar    
  32 C32            5.2826    -3.3420    -0.1981 C.ar    
  33 C33            4.4090    -3.8132     0.7631 C.ar    
  34 F34            6.5839    -3.7027    -0.1589 F       
  35 C35            1.8605    -6.4218     2.3414 C.ar    
  36 C36            0.6093    -6.7810     1.8623 C.ar    
  37 C37            2.8777    -7.3559     2.3822 C.ar    
  38 C38            2.6494    -8.6476     1.9456 C.ar    
  39 C39            1.4029    -9.0082     1.4675 C.ar    
  40 C40            0.3826    -8.0782     1.4251 C.ar    
  41 H41            1.2271   -10.0180     1.1270 H       
  42 O42           -0.3929    -5.8641     1.8215 O.3     
  43 C43           -1.6549    -6.3044     1.3161 C.3     
  44 C44           -2.6502    -5.1428     1.3471 C.3     
  45 C45           -9.1387    -8.5003    -3.6888 C.3     
  46 S46            2.1545    -4.7736     2.8907 S.o2    
  47 O47            3.5195    -4.7184     3.2818 O.2     
  48 O48            1.0821    -4.4441     3.7630 O.2     
  49 O49            1.3055    -0.4390    -2.0821 O.3     
  50 C50            1.2847     0.5374    -3.1253 C.3     
  51 C51            1.8001    -0.0904    -4.4219 C.3     
  52 F52            3.0756    -0.6234    -4.2071 F       
  53 F53            0.9304    -1.1097    -4.8243 F       
  54 H54            0.7507     2.0323    -1.4146 H       
  55 H55            0.4100    -1.2219     2.2707 H       
  56 H56           -0.0746     1.1570     2.6765 H       
  57 H57            0.0940     2.7824     0.8362 H       
  58 H58            0.6626    -2.4064    -2.1476 H       
  59 H59            0.4831    -3.9834    -1.3420 H       
  60 H60           -3.6050    -2.1581    -0.8076 H       
  61 H61           -3.7545    -2.0285    -2.5791 H       
  62 H62           -4.0761    -4.5594    -0.9009 H       
  63 H63           -5.3652    -3.6868    -1.7652 H       
  64 H64           -4.2041    -4.1321    -3.9208 H       
  65 H65           -2.3032    -5.7454    -2.1594 H       
  66 H66           -2.3016    -5.7363    -3.9399 H       
  67 H67           -1.7972    -3.3356    -3.9729 H       
  68 H68           -0.5994    -4.1618    -2.9433 H       
  69 H69           -4.9733    -6.0600    -5.1806 H       
  70 H70           -3.5898    -6.9296    -4.4740 H       
  71 H71           -5.3551    -8.4992    -5.2659 H       
  72 H72           -5.1222    -8.6070    -3.5041 H       
  73 H73           -8.1273    -6.6639    -2.7238 H       
  74 H74           -6.7437    -7.5335    -2.0172 H       
  75 H75           -6.3619    -5.0943    -1.9319 H       
  76 H76           -6.5948    -4.9865    -3.6937 H       
  77 H77           -7.7563    -9.2298    -5.1713 H       
  78 H78           -7.2986    -9.6031    -3.4922 H       
  79 H79            3.1368    -1.4768    -2.0219 H       
  80 H80            4.7683    -4.4680     1.5431 H       
  81 H81            3.8520    -7.0767     2.7552 H       
  82 H82            3.4460    -9.3762     1.9777 H       
  83 H83           -0.5909    -8.3605     1.0523 H       
  84 H84           -1.5341    -6.6520     0.2900 H       
  85 H85           -2.0293    -7.1203     1.9344 H       
  86 H86           -2.7710    -4.7952     2.3731 H       
  87 H87           -2.2758    -4.3269     0.7288 H       
  88 H88           -3.6128    -5.4787     0.9615 H       
  89 H89           -9.1043    -8.1161    -2.6693 H       
  90 H90           -9.5620    -7.7428    -4.3484 H       
  91 H91           -9.7592    -9.3960    -3.7188 H       
  92 H92            0.2638     0.8897    -3.2729 H       
  93 H93            1.9225     1.3772    -2.8496 H       
  94 H94            1.8510     0.6718    -5.1994 H       
@<TRIPOS>BOND
   1    1   31 1
   2    2    3 ar
   3    2    7 ar
   4    2   54 1
   5    3    4 ar
   6    3   49 1
   7    4    5 ar
   8    4    8 1
   9    5    6 ar
  10    5   55 1
  11    6    7 ar
  12    6   56 1
  13    7   57 1
  14    8    9 1
  15    8   10 1
  16    8   28 1
  17    9   26 2
  18    9   27 am
  19   10   11 1
  20   10   58 1
  21   10   59 1
  22   11   12 am
  23   11   13 2
  24   12   14 1
  25   12   18 1
  26   14   15 1
  27   14   60 1
  28   14   61 1
  29   15   16 1
  30   15   62 1
  31   15   63 1
  32   16   17 1
  33   16   19 1
  34   16   64 1
  35   17   18 1
  36   17   65 1
  37   17   66 1
  38   18   67 1
  39   18   68 1
  40   19   20 1
  41   19   24 1
  42   20   21 1
  43   20   69 1
  44   20   70 1
  45   21   22 1
  46   21   71 1
  47   21   72 1
  48   22   23 1
  49   22   25 1
  50   23   24 1
  51   23   73 1
  52   23   74 1
  53   24   75 1
  54   24   76 1
  55   25   45 1
  56   25   77 1
  57   25   78 1
  58   27   46 am
  59   27   29 1
  60   28   29 ar
  61   28   30 ar
  62   29   33 ar
  63   30   31 ar
  64   30   79 1
  65   31   32 ar
  66   32   33 ar
  67   32   34 1
  68   33   80 1
  69   35   36 ar
  70   35   37 ar
  71   35   46 1
  72   36   42 1
  73   36   40 ar
  74   37   38 ar
  75   37   81 1
  76   38   39 ar
  77   38   82 1
  78   39   40 ar
  79   39   41 1
  80   40   83 1
  81   42   43 1
  82   43   44 1
  83   43   84 1
  84   43   85 1
  85   44   86 1
  86   44   87 1
  87   44   88 1
  88   45   89 1
  89   45   90 1
  90   45   91 1
  91   46   47 2
  92   46   48 2
  93   49   50 1
  94   50   51 1
  95   50   92 1
  96   50   93 1
  97   51   52 1
  98   51   53 1
  99   51   94 1

#	End of record

