#	Name: ASD01901556
#	Creating user name:	WinNT
#	Creation time:	15. 06. 2019 19:53

#	Modifying user name:	WinNT
#	Modification time:	15. 06. 2019 19:53

#	Program:	/corina/corina34_cracker 3.40 0067  02.08.2006

@<TRIPOS>MOLECULE
ASD01901556
  34   37    0    0    0
SMALL
NO_CHARGES


@<TRIPOS>ATOM
   1 C1             1.1148     1.7237     0.3480 C.3     
   2 C2             0.8063     0.2534     0.2290 C.ar    
   3 N3             0.7084    -0.3030    -0.9558 N.ar    
   4 C4             0.4394    -1.5907    -1.1254 C.ar    
   5 C5             0.2448    -2.4296    -0.0682 C.ar    
   6 F6            -0.0277    -3.7378    -0.2671 F       
   7 C7             0.3343    -1.9036     1.2367 C.ar    
   8 C8             0.1478    -2.6983     2.3738 C.ar    
   9 C9             0.2485    -2.1233     3.6243 C.ar    
  10 N10            0.0640    -2.9088     4.7621 N.pl3   
  11 C11           -0.4502    -2.3374     5.9303 C.2     
  12 N12           -0.8923    -1.1148     6.0599 N.2     
  13 N13           -1.3280    -0.8995     7.3715 N.pl3   
  14 H14           -1.6984    -0.0702     7.7121 H       
  15 C15           -1.1486    -2.0469     8.0980 C.ar    
  16 C16           -1.3979    -2.4018     9.4233 C.ar    
  17 C17           -1.0830    -3.6846     9.8264 C.ar    
  18 C18           -0.5336    -4.5759     8.9139 C.ar    
  19 N19           -0.3046    -4.2254     7.6688 N.ar    
  20 C20           -0.5955    -3.0043     7.2263 C.ar    
  21 C21            0.5345    -0.7593     3.7628 C.ar    
  22 C22            0.7195     0.0317     2.6724 C.ar    
  23 C23            0.6293    -0.5227     1.3852 C.ar    
  24 H24            2.1946     1.8663     0.3884 H       
  25 H25            0.7107     2.2508    -0.5163 H       
  26 H26            0.6620     2.1174     1.2580 H       
  27 H27            0.3722    -1.9855    -2.1284 H       
  28 H28           -0.0730    -3.7507     2.2736 H       
  29 H29            0.2923    -3.8513     4.7430 H       
  30 H30           -1.8256    -1.6923    10.1161 H       
  31 H31           -1.2626    -3.9929    10.8457 H       
  32 H32           -0.2893    -5.5778     9.2347 H       
  33 H33            0.6089    -0.3292     4.7506 H       
  34 H34            0.9391     1.0819     2.7958 H       
@<TRIPOS>BOND
   1    1    2 1
   2    1   24 1
   3    1   25 1
   4    1   26 1
   5    2   23 ar
   6    2    3 ar
   7    3    4 ar
   8    4    5 ar
   9    4   27 1
  10    5    6 1
  11    5    7 ar
  12    7   23 ar
  13    7    8 ar
  14    8    9 ar
  15    8   28 1
  16    9   10 1
  17    9   21 ar
  18   10   11 1
  19   10   29 1
  20   11   20 1
  21   11   12 2
  22   12   13 1
  23   13   14 1
  24   13   15 1
  25   15   20 ar
  26   15   16 ar
  27   16   17 ar
  28   16   30 1
  29   17   18 ar
  30   17   31 1
  31   18   19 ar
  32   18   32 1
  33   19   20 ar
  34   21   22 ar
  35   21   33 1
  36   22   23 ar
  37   22   34 1

#	End of record

