#	Name: ASD01230643
#	Creating user name:	WinNT
#	Creation time:	15. 06. 2019 19:14

#	Modifying user name:	WinNT
#	Modification time:	15. 06. 2019 19:14

#	Program:	/corina/corina34_cracker 3.40 0067  02.08.2006

@<TRIPOS>MOLECULE
ASD01230643
  42   45    0    0    0
SMALL
NO_CHARGES


@<TRIPOS>ATOM
   1 C1             0.0857     1.2141     0.0059 C.2     
   2 C2             0.1491    -0.1633    -0.0697 C.2     
   3 C3            -1.0419    -0.8981    -0.0623 C.2     
   4 C4            -2.2340    -0.2776     0.0067 C.2     
   5 N5            -2.3573     1.0863     0.0667 N.pl3   
   6 C6            -1.2374     1.8689     0.1001 C.2     
   7 C7            -3.7243     1.6138     0.0844 C.3     
   8 C8            -3.8097     2.8552     0.9771 C.3     
   9 S9            -2.6135     4.0650     0.3287 S.o2    
  10 N10           -1.2244     3.1741     0.2121 N.am    
  11 C11            1.3224     2.0223    -0.0011 C.ar    
  12 C12            2.1424     2.0350    -1.1336 C.ar    
  13 C13            3.2853     2.7814    -1.1407 C.ar    
  14 C14            3.6362     3.5342    -0.0141 C.ar    
  15 C15            2.8148     3.5210     1.1191 C.ar    
  16 C16            1.6693     2.7785     1.1227 C.ar    
  17 C17            4.8704     4.3402    -0.0209 C.2     
  18 C18            5.5142     4.7164     1.2549 C.ar    
  19 C19            5.2788     3.9643     2.4080 C.ar    
  20 C20            5.8834     4.3209     3.5953 C.ar    
  21 C21            6.7211     5.4212     3.6458 C.ar    
  22 C22            6.9584     6.1711     2.5072 C.ar    
  23 C23            6.3654     5.8223     1.3118 C.ar    
  24 O24            5.3588     4.6955    -1.0764 O.2     
  25 O25           -2.9304     4.4196    -1.0104 O.2     
  26 O26           -2.3183     5.0550     1.3044 O.2     
  27 H27            1.1031    -0.6656    -0.1340 H       
  28 H28           -1.0038    -1.9763    -0.1128 H       
  29 H29           -3.1309    -0.8792     0.0147 H       
  30 H30           -4.0204     1.8795    -0.9304 H       
  31 H31           -4.4000     0.8487     0.4668 H       
  32 H32           -4.8164     3.2714     0.9393 H       
  33 H33           -3.5535     2.5930     2.0035 H       
  34 H34            1.8718     1.4538    -2.0027 H       
  35 H35            3.9188     2.7909    -2.0154 H       
  36 H36            3.0849     4.1016     1.9887 H       
  37 H37            1.0354     2.7682     1.9970 H       
  38 H38            4.6247     3.1058     2.3701 H       
  39 H39            5.7023     3.7402     4.4878 H       
  40 H40            7.1917     5.6961     4.5782 H       
  41 H41            7.6131     7.0288     2.5538 H       
  42 H42            6.5517     6.4082     0.4239 H       
@<TRIPOS>BOND
   1    1    2 2
   2    1   11 1
   3    1    6 1
   4    2    3 1
   5    2   27 1
   6    3    4 2
   7    3   28 1
   8    4    5 1
   9    4   29 1
  10    5    6 1
  11    5    7 1
  12    6   10 2
  13    7    8 1
  14    7   30 1
  15    7   31 1
  16    8    9 1
  17    8   32 1
  18    8   33 1
  19    9   10 am
  20    9   25 2
  21    9   26 2
  22   11   12 ar
  23   11   16 ar
  24   12   13 ar
  25   12   34 1
  26   13   14 ar
  27   13   35 1
  28   14   15 ar
  29   14   17 1
  30   15   16 ar
  31   15   36 1
  32   16   37 1
  33   17   18 1
  34   17   24 2
  35   18   19 ar
  36   18   23 ar
  37   19   20 ar
  38   19   38 1
  39   20   21 ar
  40   20   39 1
  41   21   22 ar
  42   21   40 1
  43   22   23 ar
  44   22   41 1
  45   23   42 1

#	End of record

