#	Name: ASD01151044
#	Creating user name:	WinNT
#	Creation time:	15. 06. 2019 19:05

#	Modifying user name:	WinNT
#	Modification time:	15. 06. 2019 19:05

#	Program:	/corina/corina34_cracker 3.40 0067  02.08.2006

@<TRIPOS>MOLECULE
ASD01151044
  58   60    0    0    0
SMALL
NO_CHARGES


@<TRIPOS>ATOM
   1 O1            -0.0612     0.6734    -0.5757 O.2     
   2 C2            -0.2472     0.7443     0.6235 C.2     
   3 C3             0.9021     0.8811     1.5429 C.ar    
   4 C4             2.2024     0.9292     1.0373 C.ar    
   5 C5             3.2706     1.0574     1.9008 C.ar    
   6 C6             3.0553     1.1378     3.2652 C.ar    
   7 C7             1.7691     1.0908     3.7729 C.ar    
   8 C8             0.6917     0.9685     2.9201 C.ar    
   9 N9            -1.5017     0.7037     1.1145 N.am    
  10 C10           -2.5947     0.6695     0.2403 C.ar    
  11 C11           -2.4591     0.1013    -1.0187 C.ar    
  12 C12           -3.5357     0.0651    -1.8872 C.ar    
  13 C13           -4.7522     0.5925    -1.5092 C.ar    
  14 C14           -4.9022     1.1670    -0.2442 C.ar    
  15 C15           -3.8173     1.1993     0.6351 C.ar    
  16 F16           -3.9531     1.7527     1.8600 F       
  17 C17           -6.2040     1.7328     0.1634 C.2     
  18 O18           -6.3318     2.2320     1.2645 O.2     
  19 N19           -7.2503     1.6956    -0.6853 N.am    
  20 C20           -8.5032     2.1592    -0.2714 C.ar    
  21 C21           -9.5902     1.2951    -0.2424 C.ar    
  22 C22           -9.4213    -0.1438    -0.6572 C.3     
  23 C23          -10.8260     1.7559     0.1673 C.ar    
  24 C24          -10.9817     3.0761     0.5484 C.ar    
  25 C25           -9.9015     3.9389     0.5207 C.ar    
  26 C26           -8.6618     3.4832     0.1171 C.ar    
  27 C27           -7.4852     4.4242     0.0872 C.3     
  28 C28          -12.3318     3.5756     0.9944 C.3     
  29 C29          -12.1609     4.8827     1.7711 C.3     
  30 C30          -11.3610     4.6164     3.0479 C.3     
  31 F31          -10.1504     3.9970     2.7192 F       
  32 F32          -11.1035     5.8281     3.6980 F       
  33 F33          -12.0978     3.7806     3.8940 F       
  34 F34          -11.4776     5.8105     0.9777 F       
  35 F35          -13.4192     5.3934     2.1070 F       
  36 C36          -13.2147     3.8219    -0.2306 C.3     
  37 F37          -13.4366     2.6117    -0.8965 F       
  38 F38          -14.4393     4.3608     0.1780 F       
  39 F39          -12.5753     4.7185    -1.0935 F       
  40 F40          -12.9341     2.6188     1.8185 F       
  41 H41            2.3717     0.8658    -0.0274 H       
  42 H42            4.2771     1.0947     1.5110 H       
  43 H43            3.8951     1.2374     3.9370 H       
  44 H44            1.6080     1.1541     4.8390 H       
  45 H45           -0.3118     0.9323     3.3176 H       
  46 H46           -1.6473     0.6983     2.0735 H       
  47 H47           -1.5094    -0.3139    -1.3219 H       
  48 H48           -3.4225    -0.3780    -2.8656 H       
  49 H49           -5.5892     0.5619    -2.1910 H       
  50 H50           -7.1344     1.3473    -1.5832 H       
  51 H51           -9.1537    -0.7437     0.2127 H       
  52 H52          -10.3563    -0.5125    -1.0790 H       
  53 H53           -8.6317    -0.2161    -1.4051 H       
  54 H54          -11.6717     1.0846     0.1897 H       
  55 H55          -10.0264     4.9694     0.8190 H       
  56 H56           -7.0460     4.4885     1.0828 H       
  57 H57           -6.7397     4.0516    -0.6153 H       
  58 H58           -7.8187     5.4131    -0.2274 H       
@<TRIPOS>BOND
   1    1    2 2
   2    2    3 1
   3    2    9 am
   4    3    4 ar
   5    3    8 ar
   6    4    5 ar
   7    4   41 1
   8    5    6 ar
   9    5   42 1
  10    6    7 ar
  11    6   43 1
  12    7    8 ar
  13    7   44 1
  14    8   45 1
  15    9   10 1
  16    9   46 1
  17   10   11 ar
  18   10   15 ar
  19   11   12 ar
  20   11   47 1
  21   12   13 ar
  22   12   48 1
  23   13   14 ar
  24   13   49 1
  25   14   15 ar
  26   14   17 1
  27   15   16 1
  28   17   18 2
  29   17   19 am
  30   19   20 1
  31   19   50 1
  32   20   21 ar
  33   20   26 ar
  34   21   22 1
  35   21   23 ar
  36   22   51 1
  37   22   52 1
  38   22   53 1
  39   23   24 ar
  40   23   54 1
  41   24   25 ar
  42   24   28 1
  43   25   26 ar
  44   25   55 1
  45   26   27 1
  46   27   56 1
  47   27   57 1
  48   27   58 1
  49   28   29 1
  50   28   36 1
  51   28   40 1
  52   29   30 1
  53   29   34 1
  54   29   35 1
  55   30   31 1
  56   30   32 1
  57   30   33 1
  58   36   37 1
  59   36   38 1
  60   36   39 1

#	End of record

