#	Name: ASD01811322
#	Creating user name:	WinNT
#	Creation time:	15. 06. 2019 19:26

#	Modifying user name:	WinNT
#	Modification time:	15. 06. 2019 19:26

#	Program:	/corina/corina34_cracker 3.40 0067  02.08.2006

@<TRIPOS>MOLECULE
ASD01811322
  61   64    0    0    0
SMALL
NO_CHARGES


@<TRIPOS>ATOM
   1 N1            -0.0369     1.4006     0.3510 N.am    
   2 C2            -0.0604     0.1000    -0.0018 C.2     
   3 O3             0.9095    -0.4027    -0.5357 O.2     
   4 N4            -1.1588    -0.6434     0.2374 N.am    
   5 C5            -1.1843    -2.0571    -0.1460 C.3     
   6 C6            -2.1907    -2.8229     0.7306 C.3     
   7 C7            -3.2531    -3.4053    -0.2244 C.3     
   8 C8            -2.5298    -3.4892    -1.5915 C.3     
   9 C9            -1.6702    -2.2008    -1.6030 C.3     
  10 C10            1.1323     2.1511     0.1804 C.ar    
  11 C11            1.0516     3.5147    -0.0757 C.ar    
  12 C12            2.2031     4.2601    -0.2453 C.ar    
  13 C13            3.4408     3.6552    -0.1615 C.ar    
  14 C14            3.5326     2.2865     0.0958 C.ar    
  15 C15            2.3705     1.5354     0.2726 C.ar    
  16 C16           -0.2960     4.1828    -0.1693 C.3     
  17 C17            4.8573     1.6358     0.1856 C.2     
  18 O18            4.9976     0.4884    -0.1904 O.2     
  19 N19            5.9092     2.3148     0.6844 N.am    
  20 C20            7.2546     1.7246     0.6732 C.3     
  21 C21            7.8238     1.7677     2.0948 C.3     
  22 C22            7.7724     3.2053     2.6173 C.3     
  23 C23            6.3186     3.6810     2.6644 C.3     
  24 C24            5.7333     3.6619     1.2442 C.3     
  25 C25            8.3629     3.2573     4.0028 C.ar    
  26 C26            7.5635     2.9680     5.0943 C.ar    
  27 C27            8.1087     3.0162     6.3649 C.ar    
  28 C28            9.4605     3.3594     6.4945 C.ar    
  29 C29           10.1986     3.6372     5.3428 C.ar    
  30 N30            9.6348     3.5728     4.1544 N.ar    
  31 C31           10.0746     3.4245     7.7864 C.1     
  32 N32           10.5619     3.4762     8.8113 N.1     
  33 H33           -0.8315     1.8176     0.7193 H       
  34 H34           -1.9326    -0.2424     0.6634 H       
  35 H35           -0.1900    -2.4907    -0.0387 H       
  36 H36           -1.6851    -3.6287     1.2626 H       
  37 H37           -2.6602    -2.1427     1.4412 H       
  38 H38           -3.5604    -4.3974     0.1062 H       
  39 H39           -4.1141    -2.7399    -0.2886 H       
  40 H40           -1.8976    -4.3758    -1.6402 H       
  41 H41           -3.2492    -3.4810    -2.4103 H       
  42 H42           -2.2756    -1.3409    -1.8899 H       
  43 H43           -0.8223    -2.3140    -2.2786 H       
  44 H44            2.1340     5.3193    -0.4445 H       
  45 H45            4.3383     4.2410    -0.2954 H       
  46 H46            2.4353     0.4767     0.4763 H       
  47 H47           -0.5963     4.5349     0.8176 H       
  48 H48           -0.2354     5.0287    -0.8540 H       
  49 H49           -1.0310     3.4679    -0.5392 H       
  50 H50            7.1972     0.6904     0.3338 H       
  51 H51            7.8986     2.2956     0.0044 H       
  52 H52            7.2308     1.1233     2.7438 H       
  53 H53            8.8573     1.4214     2.0836 H       
  54 H54            8.3453     3.8534     1.9540 H       
  55 H55            5.7397     3.0186     3.3080 H       
  56 H56            6.2807     4.6966     3.0586 H       
  57 H57            6.2557     4.3876     0.6209 H       
  58 H58            4.6717     3.9063     1.2816 H       
  59 H59            6.5245     2.7075     4.9559 H       
  60 H60            7.5074     2.7954     7.2344 H       
  61 H61           11.2420     3.9033     5.4267 H       
@<TRIPOS>BOND
   1    1    2 am
   2    1   10 1
   3    1   33 1
   4    2    3 2
   5    2    4 am
   6    4    5 1
   7    4   34 1
   8    5    6 1
   9    5    9 1
  10    5   35 1
  11    6    7 1
  12    6   36 1
  13    6   37 1
  14    7    8 1
  15    7   38 1
  16    7   39 1
  17    8    9 1
  18    8   40 1
  19    8   41 1
  20    9   42 1
  21    9   43 1
  22   10   11 ar
  23   10   15 ar
  24   11   12 ar
  25   11   16 1
  26   12   13 ar
  27   12   44 1
  28   13   14 ar
  29   13   45 1
  30   14   15 ar
  31   14   17 1
  32   15   46 1
  33   16   47 1
  34   16   48 1
  35   16   49 1
  36   17   18 2
  37   17   19 am
  38   19   20 1
  39   19   24 1
  40   20   21 1
  41   20   50 1
  42   20   51 1
  43   21   22 1
  44   21   52 1
  45   21   53 1
  46   22   23 1
  47   22   25 1
  48   22   54 1
  49   23   24 1
  50   23   55 1
  51   23   56 1
  52   24   57 1
  53   24   58 1
  54   25   26 ar
  55   25   30 ar
  56   26   27 ar
  57   26   59 1
  58   27   28 ar
  59   27   60 1
  60   28   29 ar
  61   28   31 1
  62   29   30 ar
  63   29   61 1
  64   31   32 3

#	End of record

