#	Name: ASD09960002
#	Creating user name:	WinNT
#	Creation time:	15. 06. 2019 21:24

#	Modifying user name:	WinNT
#	Modification time:	15. 06. 2019 21:24

#	Program:	/corina/corina34_cracker 3.40 0067  02.08.2006

@<TRIPOS>MOLECULE
ASD09960002
  66   68    0    0    0
SMALL
NO_CHARGES


@<TRIPOS>ATOM
   1 C1            -0.0187     1.5256     0.0104 C.3     
   2 C2             0.0021    -0.0041     0.0020 C.3     
   3 C3             0.6465    -0.4817     1.3110 C.3     
   4 C4             1.9458     0.2445     1.5238 C.ar    
   5 C5             2.8866    -0.2936     2.3930 C.ar    
   6 C6             4.0901     0.3592     2.6101 C.ar    
   7 C7             4.3548     1.5498     1.9603 C.ar    
   8 C8             3.4236     2.0861     1.0948 C.ar    
   9 C9             2.2137     1.4351     0.8702 C.ar    
  10 O10            1.3320     1.9924     0.0000 O.3     
  11 C11            0.8785    -1.9891     1.1999 C.3     
  12 C12           -0.3927    -2.6597     0.7593 C.2     
  13 C13           -1.3906    -2.0397     0.2140 C.2     
  14 C14           -1.4214    -0.5606    -0.0525 C.3     
  15 O15            2.6260    -1.4637     3.0330 O.3     
  16 C16            5.3867     3.6556     2.7664 C.3     
  17 C17            5.6614     2.2625     2.1966 C.3     
  18 C18            6.5062     1.4625     3.1902 C.3     
  19 C19            7.8328     2.1860     3.4302 C.3     
  20 C20            8.6776     1.3861     4.4238 C.3     
  21 C21           10.0041     2.1096     4.6637 C.3     
  22 C22           10.8489     1.3097     5.6574 C.3     
  23 C23           12.1755     2.0332     5.8973 C.3     
  24 C24            6.4179     2.3929     0.8731 C.3     
  25 C25           -0.7511     2.0384    -1.2311 C.3     
  26 C26           -0.7273     2.0249     1.2712 C.3     
  27 C27           -0.5136    -4.1477     0.9647 C.3     
  28 O28           -1.7840    -4.5931     0.4854 O.3     
  29 H29            0.5855    -0.3598    -0.8472 H       
  30 H30           -0.0259    -0.2760     2.1438 H       
  31 H31            4.8195    -0.0618     3.2863 H       
  32 H32            3.6342     3.0169     0.5893 H       
  33 H33            1.6638    -2.1831     0.4693 H       
  34 H34            1.1796    -2.3830     2.1706 H       
  35 H35           -2.2555    -2.6223    -0.0668 H       
  36 H36           -2.0336    -0.0676     0.7027 H       
  37 H37           -1.8454    -0.3782    -1.0400 H       
  38 H38            2.9136    -2.2496     2.5485 H       
  39 H39            4.8478     3.5626     3.7093 H       
  40 H40            6.3318     4.1710     2.9374 H       
  41 H41            4.7848     4.2255     2.0586 H       
  42 H42            5.9673     1.3696     4.1331 H       
  43 H43            6.7019     0.4700     2.7843 H       
  44 H44            8.3717     2.2790     2.4873 H       
  45 H45            7.6371     3.1785     3.8361 H       
  46 H46            8.1386     1.2932     5.3667 H       
  47 H47            8.8733     0.3936     4.0178 H       
  48 H48           10.5431     2.2025     3.7209 H       
  49 H49            9.8084     3.1021     5.0697 H       
  50 H50           10.3100     1.2167     6.6002 H       
  51 H51           11.0446     0.3172     5.2514 H       
  52 H52           11.9798     3.0257     6.3033 H       
  53 H53           12.7774     1.4633     6.6052 H       
  54 H54           12.7144     2.1261     4.9544 H       
  55 H55            5.8160     2.9628     0.1652 H       
  56 H56            7.3629     2.9084     1.0441 H       
  57 H57            6.6136     1.4004     0.4671 H       
  58 H58           -1.7745     1.6632    -1.2301 H       
  59 H59           -0.7637     3.1282    -1.2214 H       
  60 H60           -0.2370     1.6889    -2.1265 H       
  61 H61           -0.1961     1.6660     2.1528 H       
  62 H62           -0.7399     3.1148     1.2734 H       
  63 H63           -1.7505     1.6496     1.2856 H       
  64 H64            0.2800    -4.6558     0.4168 H       
  65 H65           -0.4255    -4.3762     2.0269 H       
  66 H66           -1.9311    -5.5436     0.5860 H       
@<TRIPOS>BOND
   1    1    2 1
   2    1   10 1
   3    1   25 1
   4    1   26 1
   5    2    3 1
   6    2   14 1
   7    2   29 1
   8    3    4 1
   9    3   11 1
  10    3   30 1
  11    4    5 ar
  12    4    9 ar
  13    5    6 ar
  14    5   15 1
  15    6    7 ar
  16    6   31 1
  17    7    8 ar
  18    7   17 1
  19    8    9 ar
  20    8   32 1
  21    9   10 1
  22   11   12 1
  23   11   33 1
  24   11   34 1
  25   12   13 2
  26   12   27 1
  27   13   14 1
  28   13   35 1
  29   14   36 1
  30   14   37 1
  31   15   38 1
  32   16   17 1
  33   16   39 1
  34   16   40 1
  35   16   41 1
  36   17   18 1
  37   17   24 1
  38   18   19 1
  39   18   42 1
  40   18   43 1
  41   19   20 1
  42   19   44 1
  43   19   45 1
  44   20   21 1
  45   20   46 1
  46   20   47 1
  47   21   22 1
  48   21   48 1
  49   21   49 1
  50   22   23 1
  51   22   50 1
  52   22   51 1
  53   23   52 1
  54   23   53 1
  55   23   54 1
  56   24   55 1
  57   24   56 1
  58   24   57 1
  59   25   58 1
  60   25   59 1
  61   25   60 1
  62   26   61 1
  63   26   62 1
  64   26   63 1
  65   27   28 1
  66   27   64 1
  67   27   65 1
  68   28   66 1

#	End of record

