#	Name: ASD01811904
#	Creating user name:	WinNT
#	Creation time:	15. 06. 2019 19:27

#	Modifying user name:	WinNT
#	Modification time:	15. 06. 2019 19:27

#	Program:	/corina/corina34_cracker 3.40 0067  02.08.2006

@<TRIPOS>MOLECULE
ASD01811904
  64   69    0    0    0
SMALL
NO_CHARGES


@<TRIPOS>ATOM
   1 C1            -0.0168     1.3869     0.0097 C.ar    
   2 C2             0.0021    -0.0041     0.0020 C.ar    
   3 C3             1.1801    -0.6897    -0.0129 C.ar    
   4 C4             2.3948     0.0129    -0.0207 C.ar    
   5 C5             2.3717     1.4290    -0.0129 C.ar    
   6 C6             1.1455     2.1015     0.0024 C.ar    
   7 C7             3.6293    -0.6694    -0.0365 C.ar    
   8 C8             4.8031     0.0063    -0.0446 C.ar    
   9 C9             4.8359     1.4095    -0.0374 C.ar    
  10 C10            3.6406     2.1511    -0.0211 C.ar    
  11 C11            6.1026     2.1526    -0.0470 C.2     
  12 N12            6.0328     3.5041    -0.0399 N.am    
  13 C13            4.8302     4.1313    -0.0241 C.2     
  14 N14            3.6961     3.4935    -0.0158 N.2     
  15 O15            7.1745     1.5748    -0.0604 O.2     
  16 C16            3.6424    -2.1763    -0.0442 C.3     
  17 C17            3.5087    -2.6726    -1.4608 C.ar    
  18 C18            4.6390    -2.8926    -2.2364 C.ar    
  19 C19            4.4723    -3.3483    -3.5319 C.ar    
  20 C20            3.1853    -3.5695    -4.0109 C.ar    
  21 N21            2.1319    -3.3473    -3.2398 N.ar    
  22 C22            2.2611    -2.9185    -1.9987 C.ar    
  23 N23            3.0032    -4.0274    -5.3107 N.3     
  24 C24            7.2655     4.2957    -0.0490 C.3     
  25 C25            7.3196     5.1740     1.2048 C.3     
  26 C26            8.5708     6.0543     1.1481 C.3     
  27 O27            8.5445     6.8410    -0.0446 O.3     
  28 C28            8.5410     6.0734    -1.2500 C.3     
  29 C29            7.2886     5.1938    -1.2896 C.3     
  30 O30            7.3717     4.3444     2.3672 O.3     
  31 C31            1.5752    -4.1941    -5.6151 C.3     
  32 C32            1.4144    -4.6218    -7.0758 C.3     
  33 N33            2.1476    -5.8754    -7.3001 N.3     
  34 C34            3.5756    -5.7086    -6.9957 C.3     
  35 C35            3.7365    -5.2810    -5.5350 C.3     
  36 H36           -0.9630     1.9076     0.0169 H       
  37 H37           -0.9305    -0.5488     0.0083 H       
  38 H38            1.1786    -1.7697    -0.0183 H       
  39 H39            1.1188     3.1811     0.0081 H       
  40 H40            5.7317    -0.5451    -0.0563 H       
  41 H41            4.8132     5.2111    -0.0182 H       
  42 H42            4.5813    -2.5336     0.3789 H       
  43 H43            2.8098    -2.5499     0.5518 H       
  44 H44            5.6262    -2.7117    -1.8375 H       
  45 H45            5.3298    -3.5296    -4.1630 H       
  46 H46            1.3792    -2.7482    -1.3991 H       
  47 H47            8.1281     3.6295    -0.0650 H       
  48 H48            6.4318     5.8051     1.2460 H       
  49 H49            8.5922     6.7121     2.0170 H       
  50 H50            9.4596     5.4232     1.1477 H       
  51 H51            8.5409     6.7448    -2.1086 H       
  52 H52            9.4294     5.4425    -1.2817 H       
  53 H53            7.3062     4.5752    -2.1869 H       
  54 H54            6.4002     5.8253    -1.2987 H       
  55 H55            7.4077     4.8353     3.1995 H       
  56 H56            1.1514    -4.9583    -4.9637 H       
  57 H57            1.0562    -3.2494    -5.4535 H       
  58 H58            0.3577    -4.7741    -7.2959 H       
  59 H59            1.8137    -3.8452    -7.7282 H       
  60 H60            1.7486    -6.6292    -6.7610 H       
  61 H61            4.0946    -6.6534    -7.1573 H       
  62 H62            3.9995    -4.9444    -7.6472 H       
  63 H63            4.7931    -5.1286    -5.3150 H       
  64 H64            3.3372    -6.0576    -4.8826 H       
@<TRIPOS>BOND
   1    1    2 ar
   2    1    6 ar
   3    1   36 1
   4    2    3 ar
   5    2   37 1
   6    3    4 ar
   7    3   38 1
   8    4    5 ar
   9    4    7 ar
  10    5    6 ar
  11    5   10 ar
  12    6   39 1
  13    7    8 ar
  14    7   16 1
  15    8    9 ar
  16    8   40 1
  17    9   10 ar
  18    9   11 1
  19   10   14 1
  20   11   12 am
  21   11   15 2
  22   12   13 1
  23   12   24 1
  24   13   14 2
  25   13   41 1
  26   16   17 1
  27   16   42 1
  28   16   43 1
  29   17   18 ar
  30   17   22 ar
  31   18   19 ar
  32   18   44 1
  33   19   20 ar
  34   19   45 1
  35   20   21 ar
  36   20   23 1
  37   21   22 ar
  38   22   46 1
  39   23   31 1
  40   23   35 1
  41   24   25 1
  42   24   29 1
  43   24   47 1
  44   25   26 1
  45   25   30 1
  46   25   48 1
  47   26   27 1
  48   26   49 1
  49   26   50 1
  50   27   28 1
  51   28   29 1
  52   28   51 1
  53   28   52 1
  54   29   53 1
  55   29   54 1
  56   30   55 1
  57   31   32 1
  58   31   56 1
  59   31   57 1
  60   32   33 1
  61   32   58 1
  62   32   59 1
  63   33   34 1
  64   33   60 1
  65   34   35 1
  66   34   61 1
  67   34   62 1
  68   35   63 1
  69   35   64 1

#	End of record

