#	Name: ASD01530040
#	Creating user name:	WinNT
#	Creation time:	15. 06. 2019 19:22

#	Modifying user name:	WinNT
#	Modification time:	15. 06. 2019 19:22

#	Program:	/corina/corina34_cracker 3.40 0067  02.08.2006

@<TRIPOS>MOLECULE
ASD01530040
  28   29    0    0    0
SMALL
NO_CHARGES


@<TRIPOS>ATOM
   1 C1             0.1426     1.2051    -0.0249 C.ar    
   2 C2             0.1021    -0.1898    -0.0322 C.ar    
   3 C3             1.2682    -0.9027    -0.0554 C.ar    
   4 C4             2.4925    -0.2499    -0.0718 C.ar    
   5 C5             2.5542     1.1273    -0.0649 C.ar    
   6 C6             1.3805     1.8706    -0.0414 C.ar    
   7 C7            -0.8835     2.2528     0.0038 C.2     
   8 C8            -0.2457     3.4314    -0.0028 C.2     
   9 N9             1.1135     3.2274    -0.0289 N.am    
  10 C10            3.8902     1.8242    -0.0824 C.3     
  11 C11            2.0445     4.2018    -0.0417 C.2     
  12 O12            2.0336     5.1556     0.9078 O.3     
  13 O13            2.8934     4.2192    -0.9102 O.2     
  14 C14            3.0662     6.1735     0.8316 C.3     
  15 C15            2.8930     7.1630     1.9856 C.3     
  16 H16           -0.8474    -0.7044    -0.0192 H       
  17 H17            1.2364    -1.9822    -0.0607 H       
  18 H18            3.4057    -0.8262    -0.0897 H       
  19 H19           -1.9528     2.1026     0.0257 H       
  20 H20           -0.7277     4.3977     0.0136 H       
  21 H21            4.2322     1.9285    -1.1121 H       
  22 H22            3.7910     2.8113     0.3692 H       
  23 H23            4.6138     1.2370     0.4831 H       
  24 H24            4.0467     5.7023     0.9011 H       
  25 H25            2.9844     6.7038    -0.1171 H       
  26 H26            3.6682     7.9272     1.9284 H       
  27 H27            1.9126     7.6342     1.9161 H       
  28 H28            2.9748     6.6327     2.9344 H       
@<TRIPOS>BOND
   1    1    2 ar
   2    1    6 ar
   3    1    7 1
   4    2    3 ar
   5    2   16 1
   6    3    4 ar
   7    3   17 1
   8    4    5 ar
   9    4   18 1
  10    5    6 ar
  11    5   10 1
  12    6    9 1
  13    7    8 2
  14    7   19 1
  15    8    9 1
  16    8   20 1
  17    9   11 am
  18   10   21 1
  19   10   22 1
  20   10   23 1
  21   11   12 1
  22   11   13 2
  23   12   14 1
  24   14   15 1
  25   14   24 1
  26   14   25 1
  27   15   26 1
  28   15   27 1
  29   15   28 1

#	End of record

