#	Name: ASD01940357
#	Creating user name:	WinNT
#	Creation time:	15. 06. 2019 20:12

#	Modifying user name:	WinNT
#	Modification time:	15. 06. 2019 20:12

#	Program:	/corina/corina34_cracker 3.40 0067  02.08.2006

@<TRIPOS>MOLECULE
ASD01940357
  39   41    0    0    0
SMALL
NO_CHARGES


@<TRIPOS>ATOM
   1 C1            -2.6055     0.8242     1.2322 C.3     
   2 C2            -3.3477    -0.1829     2.1129 C.3     
   3 C3            -2.3209    -0.6723     1.0896 C.3     
   4 S4            -3.5450     1.6284    -0.0949 S.o2    
   5 O5            -3.8324     0.7026    -1.1340 O.2     
   6 O6            -4.5618     2.4600     0.4472 O.2     
   7 N7            -2.4713     2.6883    -0.7776 N.am    
   8 C8            -1.4114     2.1916    -1.6586 C.3     
   9 C9            -2.5766     4.0603    -0.5127 C.ar    
  10 C10           -1.9811     4.5993     0.6269 C.ar    
  11 C11           -2.0882     5.9592     0.8842 C.ar    
  12 C12           -2.7859     6.7762     0.0083 C.ar    
  13 C13           -3.3766     6.2386    -1.1220 C.ar    
  14 C14           -3.2683     4.8852    -1.3864 C.ar    
  15 N15           -1.2766     3.7703     1.5107 N.pl3   
  16 C16           -1.8865     3.3243     2.6874 C.ar    
  17 C17           -1.1454     2.6255     3.6354 C.ar    
  18 C18           -1.7520     2.1869     4.7975 C.ar    
  19 C19           -3.0943     2.4420     5.0173 C.ar    
  20 C20           -3.8327     3.1359     4.0762 C.ar    
  21 C21           -3.2313     3.5827     2.9152 C.ar    
  22 I22           -4.0099     1.7748     6.7795 I       
  23 F23            0.1648     2.3758     3.4203 F       
  24 F24           -2.8901     8.0997     0.2588 F       
  25 F25           -1.5131     6.4860     1.9874 F       
  26 H26           -1.8403     1.4391     1.7059 H       
  27 H27           -3.0707    -0.2306     3.1661 H       
  28 H28           -4.4005    -0.3624     1.8949 H       
  29 H29           -2.6983    -1.1736     0.1983 H       
  30 H30           -1.3685    -1.0419     1.4694 H       
  31 H31           -1.7711     2.1771    -2.6874 H       
  32 H32           -0.5427     2.8460    -1.5866 H       
  33 H33           -1.1318     1.1821    -1.3572 H       
  34 H34           -3.9200     6.8783    -1.8016 H       
  35 H35           -3.7264     4.4701    -2.2719 H       
  36 H36           -0.3660     3.5059     1.3061 H       
  37 H37           -1.1781     1.6444     5.5342 H       
  38 H38           -4.8802     3.3325     4.2509 H       
  39 H39           -3.8082     4.1284     2.1832 H       
@<TRIPOS>BOND
   1    1    2 1
   2    1    3 1
   3    1    4 1
   4    1   26 1
   5    2    3 1
   6    2   27 1
   7    2   28 1
   8    3   29 1
   9    3   30 1
  10    4    5 2
  11    4    6 2
  12    4    7 am
  13    7    8 1
  14    7    9 1
  15    8   31 1
  16    8   32 1
  17    8   33 1
  18    9   10 ar
  19    9   14 ar
  20   10   11 ar
  21   10   15 1
  22   11   12 ar
  23   11   25 1
  24   12   13 ar
  25   12   24 1
  26   13   14 ar
  27   13   34 1
  28   14   35 1
  29   15   16 1
  30   15   36 1
  31   16   17 ar
  32   16   21 ar
  33   17   18 ar
  34   17   23 1
  35   18   19 ar
  36   18   37 1
  37   19   20 ar
  38   19   22 1
  39   20   21 ar
  40   20   38 1
  41   21   39 1

#	End of record

