#	Name: ASD07931638
#	Creating user name:	WinNT
#	Creation time:	15. 06. 2019 21:13

#	Modifying user name:	WinNT
#	Modification time:	15. 06. 2019 21:13

#	Program:	/corina/corina34_cracker 3.40 0067  02.08.2006

@<TRIPOS>MOLECULE
ASD07931638
  62   67    0    0    0
SMALL
NO_CHARGES


@<TRIPOS>ATOM
   1 N1            -0.0161     1.3385     0.0094 N.pl3   
   2 C2             0.0021    -0.0041     0.0020 C.2     
   3 C3             1.1793    -0.7101    -0.0126 C.2     
   4 C4             2.4649     0.0243    -0.0210 C.2     
   5 C5             2.3994     1.4986    -0.0138 C.ar    
   6 C6             3.5526     2.2767    -0.0207 C.ar    
   7 C7             3.4489     3.6523    -0.0136 C.ar    
   8 C8             2.2021     4.2572     0.0009 C.ar    
   9 C9             1.0517     3.4966     0.0079 C.ar    
  10 C10            1.1344     2.1082     0.0025 C.ar    
  11 N11            2.8980    -2.1584    -0.0354 N.am    
  12 N12            3.4180    -0.8617    -0.0340 N.2     
  13 C13            1.5480    -2.1223    -0.0227 C.2     
  14 O14            0.7891    -3.0781    -0.0199 O.2     
  15 C15           -1.3130     2.0200     0.0192 C.3     
  16 C16           -1.7510     2.2459     1.4433 C.ar    
  17 C17           -1.3941     3.4101     2.0985 C.ar    
  18 C18           -1.7941     3.6200     3.4037 C.ar    
  19 C19           -2.5556     2.6609     4.0577 C.ar    
  20 C20           -2.9127     1.4932     3.3971 C.ar    
  21 C21           -2.5138     1.2911     2.0903 C.ar    
  22 N22           -2.9627     2.8708     5.3826 N.pl3   
  23 N23           -2.6752     3.9968     6.1649 N.2     
  24 C24           -3.2239     3.8288     7.3411 C.2     
  25 C25           -3.8780     2.5920     7.3467 C.2     
  26 C26           -3.7074     2.0250     6.1299 C.2     
  27 C27            3.7025    -3.3828    -0.0491 C.3     
  28 C28            4.5738    -3.4065    -1.3066 C.3     
  29 C29            5.4139    -4.6851    -1.3209 C.3     
  30 C30            6.3082    -4.7216    -0.0800 C.3     
  31 C31            5.4369    -4.6979     1.1775 C.3     
  32 C32            4.5968    -3.4193     1.1918 C.3     
  33 N33            3.7151    -3.3714    -2.4980 N.3     
  34 C34            4.4348    -2.8105    -3.6492 C.3     
  35 H35           -0.9340    -0.5427     0.0081 H       
  36 H36            4.5245     1.8060    -0.0313 H       
  37 H37            4.3419     4.2596    -0.0189 H       
  38 H38            2.1306     5.3348     0.0071 H       
  39 H39            0.0857     3.9794     0.0196 H       
  40 H40           -1.2230     2.9796    -0.4899 H       
  41 H41           -2.0510     1.4039    -0.4946 H       
  42 H42           -0.8018     4.1559     1.5892 H       
  43 H43           -1.5145     4.5292     3.9152 H       
  44 H44           -3.5050     0.7452     3.9032 H       
  45 H45           -2.7945     0.3846     1.5746 H       
  46 H46           -3.1789     4.5248     8.1657 H       
  47 H47           -4.4260     2.1668     8.1745 H       
  48 H48           -4.0946     1.0678     5.8132 H       
  49 H49            3.0432    -4.2507    -0.0475 H       
  50 H50            5.2331    -2.5385    -1.3082 H       
  51 H51            4.7546    -5.5531    -1.3192 H       
  52 H52            6.0346    -4.7020    -2.2167 H       
  53 H53            6.9067    -5.6325    -0.0902 H       
  54 H54            6.9675    -3.8536    -0.0816 H       
  55 H55            4.7776    -5.5659     1.1791 H       
  56 H56            6.0740    -4.7239     2.0615 H       
  57 H57            5.2561    -2.5513     1.1902 H       
  58 H58            3.9761    -3.4024     2.0876 H       
  59 H59            3.3531    -4.2890    -2.7099 H       
  60 H60            4.7538    -1.7941    -3.4183 H       
  61 H61            5.3085    -3.4251    -3.8661 H       
  62 H62            3.7761    -2.7961    -4.5176 H       
@<TRIPOS>BOND
   1    1    2 1
   2    1   10 1
   3    1   15 1
   4    2    3 2
   5    2   35 1
   6    3    4 1
   7    3   13 1
   8    4    5 1
   9    4   12 2
  10    5    6 ar
  11    5   10 ar
  12    6    7 ar
  13    6   36 1
  14    7    8 ar
  15    7   37 1
  16    8    9 ar
  17    8   38 1
  18    9   10 ar
  19    9   39 1
  20   11   12 1
  21   11   13 am
  22   11   27 1
  23   13   14 2
  24   15   16 1
  25   15   40 1
  26   15   41 1
  27   16   17 ar
  28   16   21 ar
  29   17   18 ar
  30   17   42 1
  31   18   19 ar
  32   18   43 1
  33   19   20 ar
  34   19   22 1
  35   20   21 ar
  36   20   44 1
  37   21   45 1
  38   22   23 1
  39   22   26 1
  40   23   24 2
  41   24   25 1
  42   24   46 1
  43   25   26 2
  44   25   47 1
  45   26   48 1
  46   27   28 1
  47   27   32 1
  48   27   49 1
  49   28   29 1
  50   28   33 1
  51   28   50 1
  52   29   30 1
  53   29   51 1
  54   29   52 1
  55   30   31 1
  56   30   53 1
  57   30   54 1
  58   31   32 1
  59   31   55 1
  60   31   56 1
  61   32   57 1
  62   32   58 1
  63   33   34 1
  64   33   59 1
  65   34   60 1
  66   34   61 1
  67   34   62 1

#	End of record

