#	Name: ASD02398046
#	Creating user name:	WinNT
#	Creation time:	15. 06. 2019 20:20

#	Modifying user name:	WinNT
#	Modification time:	15. 06. 2019 20:20

#	Program:	/corina/corina34_cracker 3.40 0067  02.08.2006

@<TRIPOS>MOLECULE
ASD02398046
  50   52    0    0    0
SMALL
NO_CHARGES


@<TRIPOS>ATOM
   1 C1            -0.0169     1.3942     0.0097 C.ar    
   2 C2             0.0021    -0.0041     0.0020 C.ar    
   3 C3            -1.1981    -0.7105     0.0102 C.ar    
   4 C4            -2.3984    -0.0288     0.0258 C.ar    
   5 C5            -2.4141     1.3545     0.0333 C.ar    
   6 C6            -1.2286     2.0654     0.0307 C.ar    
   7 C7            -3.6965    -0.7944     0.0341 C.3     
   8 C8            -4.1153    -1.0577     1.4576 C.2     
   9 O9            -3.4300    -0.6641     2.3716 O.2     
  10 O10           -5.2496    -1.7295     1.7101 O.3     
  11 C11            1.2946    -0.7315    -0.0152 C.ar    
  12 C12            2.1654    -0.6364     1.0690 C.ar    
  13 C13            1.6403    -1.5171    -1.1130 C.ar    
  14 C14            2.8442    -2.1923    -1.1234 C.ar    
  15 C15            3.7067    -2.0901    -0.0471 C.ar    
  16 C16            3.3663    -1.3157     1.0477 C.ar    
  17 C17            1.7962     0.2071     2.2620 C.3     
  18 N18            0.8700    -0.5376     3.1188 N.pl3   
  19 C19            1.2208    -1.3614     4.1462 C.2     
  20 N20            0.2321    -1.9061     4.7549 N.2     
  21 C21           -1.0361    -1.4726     4.1514 C.3     
  22 C22           -0.5995    -0.5189     3.0209 C.3     
  23 C23            2.6548    -1.6120     4.5358 C.3     
  24 O24            1.1487     2.0917     0.0023 O.3     
  25 C25            1.0517     3.5174     0.0109 C.3     
  26 C26            5.0194    -2.8300    -0.0641 C.3     
  27 F27            5.1371    -3.5433    -1.2618 F       
  28 F28            6.0722    -1.9143     0.0386 F       
  29 F29            5.0677    -3.7191     1.0149 F       
  30 H30           -1.1897    -1.7904     0.0039 H       
  31 H31           -3.3568     1.8813     0.0456 H       
  32 H32           -1.2472     3.1452     0.0366 H       
  33 H33           -4.4665    -0.2095    -0.4689 H       
  34 H34           -3.5624    -1.7426    -0.4865 H       
  35 H35           -5.4767    -1.8741     2.6389 H       
  36 H36            0.9674    -1.5979    -1.9538 H       
  37 H37            3.1131    -2.8017    -1.9735 H       
  38 H38            4.0436    -1.2395     1.8855 H       
  39 H39            2.6960     0.4519     2.8263 H       
  40 H40            1.3184     1.1263     1.9232 H       
  41 H41           -1.5796    -2.3269     3.7480 H       
  42 H42           -1.6453    -0.9405     4.8820 H       
  43 H43           -0.9899     0.4845     3.1910 H       
  44 H44           -0.9202    -0.8989     2.0509 H       
  45 H45            2.9629    -0.8775     5.2799 H       
  46 H46            2.7478    -2.6142     4.9543 H       
  47 H47            3.2910    -1.5256     3.6549 H       
  48 H48            2.0522     3.9498     0.0037 H       
  49 H49            0.5059     3.8497    -0.8721 H       
  50 H50            0.5228     3.8402     0.9077 H       
@<TRIPOS>BOND
   1    1    2 ar
   2    1   24 1
   3    1    6 ar
   4    2    3 ar
   5    2   11 1
   6    3    4 ar
   7    3   30 1
   8    4    5 ar
   9    4    7 1
  10    5    6 ar
  11    5   31 1
  12    6   32 1
  13    7    8 1
  14    7   33 1
  15    7   34 1
  16    8    9 2
  17    8   10 1
  18   10   35 1
  19   11   12 ar
  20   11   13 ar
  21   12   17 1
  22   12   16 ar
  23   13   14 ar
  24   13   36 1
  25   14   15 ar
  26   14   37 1
  27   15   16 ar
  28   15   26 1
  29   16   38 1
  30   17   18 1
  31   17   39 1
  32   17   40 1
  33   18   19 1
  34   18   22 1
  35   19   20 2
  36   19   23 1
  37   20   21 1
  38   21   22 1
  39   21   41 1
  40   21   42 1
  41   22   43 1
  42   22   44 1
  43   23   45 1
  44   23   46 1
  45   23   47 1
  46   24   25 1
  47   25   48 1
  48   25   49 1
  49   25   50 1
  50   26   27 1
  51   26   28 1
  52   26   29 1

#	End of record

