#	Name: ASD04500001
#	Creating user name:	WinNT
#	Creation time:	15. 06. 2019 20:49

#	Modifying user name:	WinNT
#	Modification time:	15. 06. 2019 20:49

#	Program:	/corina/corina34_cracker 3.40 0067  02.08.2006

@<TRIPOS>MOLECULE
ASD04500001
  57   61    0    0    0
SMALL
NO_CHARGES


@<TRIPOS>ATOM
   1 C1            -0.0168     1.3873     0.0097 C.ar    
   2 C2             0.0021    -0.0041     0.0020 C.ar    
   3 C3            -1.1902    -0.7101     0.0096 C.ar    
   4 C4            -2.3949    -0.0322     0.0247 C.ar    
   5 C5            -2.4136     1.3502     0.0318 C.ar    
   6 C6            -1.2277     2.0606     0.0306 C.ar    
   7 O7             1.1880    -0.6694    -0.0133 O.3     
   8 C8            -3.7297     2.0841     0.0478 C.3     
   9 C9            -4.2297     2.2190     1.4925 C.3     
  10 O10           -4.7041     1.3446    -0.6963 O.3     
  11 C11           -6.0046     1.7125    -0.5354 C.ar    
  12 C12           -6.3951     2.4897     0.5484 C.ar    
  13 O13           -5.4849     2.9074     1.4700 O.3     
  14 C14           -3.2177     3.0179     2.3162 C.3     
  15 O15           -3.6297     3.0414     3.6844 O.3     
  16 C16           -6.9479     1.3034    -1.4664 C.ar    
  17 C17           -8.2726     1.6666    -1.3153 C.ar    
  18 C18           -8.6615     2.4383    -0.2361 C.ar    
  19 C19           -7.7268     2.8490     0.6953 C.ar    
  20 C20           -9.2951     1.2212    -2.3289 C.3     
  21 O21          -10.5356     0.9621    -1.6719 O.3     
  22 C22           -9.4953     2.3275    -3.3750 C.3     
  23 C23          -10.5554     1.8401    -4.3464 C.2     
  24 C24          -11.6957     1.1216    -3.7673 C.ar    
  25 C25          -11.6280     0.6988    -2.4269 C.ar    
  26 O26          -10.4643     2.0353    -5.5409 O.2     
  27 O27           -8.2704     2.5664    -4.0711 O.3     
  28 C28          -12.8399     0.8555    -4.5360 C.ar    
  29 C29          -13.8969     0.1667    -3.9686 C.ar    
  30 C30          -13.8233    -0.2552    -2.6466 C.ar    
  31 C31          -12.6960     0.0096    -1.8798 C.ar    
  32 O32          -14.8637    -0.9324    -2.0992 O.3     
  33 O33          -12.9086     1.2710    -5.8251 O.3     
  34 O34            1.1507     2.0847     0.0023 O.3     
  35 C35            1.0547     3.5105     0.0108 C.3     
  36 H36           -1.1783    -1.7900     0.0033 H       
  37 H37           -3.3234    -0.5837     0.0305 H       
  38 H38           -1.2451     3.1405     0.0362 H       
  39 H39            1.5398    -0.8666     0.8656 H       
  40 H40           -3.6040     3.0737    -0.3917 H       
  41 H41           -4.3603     1.2293     1.9302 H       
  42 H42           -2.2365     2.5493     2.2402 H       
  43 H43           -3.1637     4.0379     1.9355 H       
  44 H44           -3.0333     3.5320     4.2664 H       
  45 H45           -6.6467     0.7006    -2.3105 H       
  46 H46           -9.6977     2.7197    -0.1201 H       
  47 H47           -8.0331     3.4518     1.5374 H       
  48 H48           -8.9475     0.3130    -2.8212 H       
  49 H49           -9.8310     3.2428    -2.8877 H       
  50 H50           -8.3300     3.2555    -4.7469 H       
  51 H51          -14.7803    -0.0429    -4.5535 H       
  52 H52          -12.6528    -0.3234    -0.8534 H       
  53 H53          -14.8072    -1.8920    -2.2041 H       
  54 H54          -12.5727     0.6276    -6.4641 H       
  55 H55            0.5092     3.8433    -0.8722 H       
  56 H56            0.5262     3.8337     0.9077 H       
  57 H57            2.0556     3.9421     0.0036 H       
@<TRIPOS>BOND
   1    1    2 ar
   2    1   34 1
   3    1    6 ar
   4    2    3 ar
   5    2    7 1
   6    3    4 ar
   7    3   36 1
   8    4    5 ar
   9    4   37 1
  10    5    6 ar
  11    5    8 1
  12    6   38 1
  13    7   39 1
  14    8    9 1
  15    8   10 1
  16    8   40 1
  17    9   14 1
  18    9   13 1
  19    9   41 1
  20   10   11 1
  21   11   12 ar
  22   11   16 ar
  23   12   13 1
  24   12   19 ar
  25   14   15 1
  26   14   42 1
  27   14   43 1
  28   15   44 1
  29   16   17 ar
  30   16   45 1
  31   17   18 ar
  32   17   20 1
  33   18   19 ar
  34   18   46 1
  35   19   47 1
  36   20   21 1
  37   20   22 1
  38   20   48 1
  39   21   25 1
  40   22   23 1
  41   22   27 1
  42   22   49 1
  43   23   24 1
  44   23   26 2
  45   24   25 ar
  46   24   28 ar
  47   25   31 ar
  48   27   50 1
  49   28   29 ar
  50   28   33 1
  51   29   30 ar
  52   29   51 1
  53   30   31 ar
  54   30   32 1
  55   31   52 1
  56   32   53 1
  57   33   54 1
  58   34   35 1
  59   35   55 1
  60   35   56 1
  61   35   57 1

#	End of record

