#	Name: ASD01813084
#	Creating user name:	WinNT
#	Creation time:	15. 06. 2019 19:29

#	Modifying user name:	WinNT
#	Modification time:	15. 06. 2019 19:29

#	Program:	/corina/corina34_cracker 3.40 0067  02.08.2006

@<TRIPOS>MOLECULE
ASD01813084
  49   52    0    0    0
SMALL
NO_CHARGES


@<TRIPOS>ATOM
   1 C1            -0.8214     0.8739    -0.0082 C.2     
   2 C2            -0.5415    -0.4988     0.0265 C.2     
   3 C3             0.7543    -0.9215    -0.0298 C.2     
   4 C4             1.7866     0.0268    -0.1216 C.2     
   5 N5             1.4846     1.3612    -0.1533 N.am    
   6 C6             0.1857     1.7718    -0.0968 C.2     
   7 C7             3.1192    -0.4050    -0.1795 C.2     
   8 C8             4.1296     0.5080    -0.2688 C.2     
   9 C9             3.8152     1.8793    -0.3018 C.2     
  10 C10            2.4655     2.2821    -0.2410 C.2     
  11 O11            2.1839     3.4682    -0.2693 O.2     
  12 C12            4.8809     2.8794    -0.3969 C.2     
  13 O13            6.0438     2.5261    -0.4479 O.2     
  14 O14            4.5729     4.1924    -0.4280 O.3     
  15 C15            3.4360    -1.8778    -0.1425 C.3     
  16 N16            3.5805    -2.3822    -1.5146 N.3     
  17 C17            4.1190    -3.7484    -1.5191 C.3     
  18 C18            4.3921    -4.1857    -2.9600 C.3     
  19 C19            3.0887    -4.1282    -3.7615 C.3     
  20 C20            2.5235    -2.7064    -3.7005 C.3     
  21 C21            2.3046    -2.3120    -2.2382 C.3     
  22 C22            3.3626    -4.5002    -5.1959 C.ar    
  23 N23            3.2182    -3.5945    -6.1431 N.ar    
  24 C24            3.4467    -3.8746    -7.4114 C.ar    
  25 C25            3.8489    -5.1398    -7.7950 C.ar    
  26 C26            4.0118    -6.1196    -6.8276 C.ar    
  27 C27            3.7682    -5.7864    -5.5032 C.ar    
  28 Br28           3.9734    -7.0780    -4.1374 Br      
  29 C29            2.1149    -5.0697    -3.1852 C.1     
  30 N30            1.3634    -5.7963    -2.7404 N.1     
  31 H31           -1.8452     1.2156     0.0314 H       
  32 H32           -1.3455    -1.2165     0.0976 H       
  33 H33            0.9847    -1.9764    -0.0036 H       
  34 H34           -0.0416     2.8273    -0.1222 H       
  35 H35            5.1582     0.1821    -0.3134 H       
  36 H36            5.3102     4.8149    -0.4913 H       
  37 H37            4.3667    -2.0357     0.4025 H       
  38 H38            2.6273    -2.4110     0.3573 H       
  39 H39            5.0478    -3.7745    -0.9494 H       
  40 H40            3.3954    -4.4255    -1.0650 H       
  41 H41            5.1259    -3.5173    -3.4103 H       
  42 H42            4.7771    -5.2054    -2.9640 H       
  43 H43            3.2280    -2.0147    -4.1625 H       
  44 H44            1.5735    -2.6693    -4.2336 H       
  45 H45            1.5895    -2.9958    -1.7807 H       
  46 H46            1.9156    -1.2949    -2.1907 H       
  47 H47            3.3175    -3.1062    -8.1592 H       
  48 H48            4.0336    -5.3627    -8.8355 H       
  49 H49            4.3249    -7.1171    -7.0982 H       
@<TRIPOS>BOND
   1    1    2 1
   2    1    6 2
   3    1   31 1
   4    2    3 2
   5    2   32 1
   6    3    4 1
   7    3   33 1
   8    4    5 1
   9    4    7 2
  10    5    6 1
  11    5   10 am
  12    6   34 1
  13    7    8 1
  14    7   15 1
  15    8    9 2
  16    8   35 1
  17    9   10 1
  18    9   12 1
  19   10   11 2
  20   12   13 2
  21   12   14 1
  22   14   36 1
  23   15   16 1
  24   15   37 1
  25   15   38 1
  26   16   17 1
  27   16   21 1
  28   17   18 1
  29   17   39 1
  30   17   40 1
  31   18   19 1
  32   18   41 1
  33   18   42 1
  34   19   20 1
  35   19   22 1
  36   19   29 1
  37   20   21 1
  38   20   43 1
  39   20   44 1
  40   21   45 1
  41   21   46 1
  42   22   23 ar
  43   22   27 ar
  44   23   24 ar
  45   24   25 ar
  46   24   47 1
  47   25   26 ar
  48   25   48 1
  49   26   27 ar
  50   26   49 1
  51   27   28 1
  52   29   30 3

#	End of record

