#	Name: ASD01208413
#	Creating user name:	WinNT
#	Creation time:	15. 06. 2019 19:09

#	Modifying user name:	WinNT
#	Modification time:	15. 06. 2019 19:09

#	Program:	/corina/corina34_cracker 3.40 0067  02.08.2006

@<TRIPOS>MOLECULE
ASD01208413
  33   34    0    0    0
SMALL
NO_CHARGES


@<TRIPOS>ATOM
   1 C1             3.1673     1.3914     3.5277 C.ar    
   2 C2             3.4389     0.0356     3.5484 C.ar    
   3 C3             3.7483    -0.6290     2.3706 C.ar    
   4 C4             3.7853     0.0671     1.1720 C.ar    
   5 C5             3.5128     1.4264     1.1533 C.ar    
   6 C6             3.2036     2.0874     2.3339 C.ar    
   7 O7             3.5488     2.1109    -0.0200 O.3     
   8 C8             3.3820     3.4588     0.0226 C.ar    
   9 C9             4.4804     4.2902     0.1889 C.ar    
  10 C10            4.3081     5.6601     0.2318 C.ar    
  11 C11            3.0423     6.2030     0.1097 C.ar    
  12 C12            1.9460     5.3769    -0.0557 C.ar    
  13 C13            2.1136     4.0066    -0.1060 C.ar    
  14 S14            2.8260     7.9508     0.1655 S.o2    
  15 O15            1.4938     8.1244     0.6284 O.2     
  16 O16            3.9323     8.4168     0.9257 O.2     
  17 C17            2.9732     8.4805    -1.5632 C.3     
  18 O18            4.0155    -1.9613     2.3916 O.3     
  19 C19            3.9597    -2.6142     3.6616 C.3     
  20 Br20           2.7382     2.2930     5.1336 Br      
  21 H21            3.4104    -0.5062     4.4822 H       
  22 H22            4.0264    -0.4488     0.2543 H       
  23 H23            2.9912     3.1463     2.3198 H       
  24 H24            5.4692     3.8665     0.2851 H       
  25 H25            5.1627     6.3076     0.3613 H       
  26 H26            0.9584     5.8034    -0.1505 H       
  27 H27            1.2575     3.3619    -0.2400 H       
  28 H28            2.2014     7.9938    -2.1594 H       
  29 H29            2.8509     9.5620    -1.6235 H       
  30 H30            3.9559     8.2042    -1.9455 H       
  31 H31            4.6850    -2.1593     4.3361 H       
  32 H32            2.9587    -2.5095     4.0802 H       
  33 H33            4.1927    -3.6717     3.5370 H       
@<TRIPOS>BOND
   1    1    2 ar
   2    1    6 ar
   3    1   20 1
   4    2    3 ar
   5    2   21 1
   6    3    4 ar
   7    3   18 1
   8    4    5 ar
   9    4   22 1
  10    5    6 ar
  11    5    7 1
  12    6   23 1
  13    7    8 1
  14    8    9 ar
  15    8   13 ar
  16    9   10 ar
  17    9   24 1
  18   10   11 ar
  19   10   25 1
  20   11   12 ar
  21   11   14 1
  22   12   13 ar
  23   12   26 1
  24   13   27 1
  25   14   15 2
  26   14   16 2
  27   14   17 1
  28   17   28 1
  29   17   29 1
  30   17   30 1
  31   18   19 1
  32   19   31 1
  33   19   32 1
  34   19   33 1

#	End of record

