#	Name: ASD01000025
#	Creating user name:	WinNT
#	Creation time:	15. 06. 2019 18:54

#	Modifying user name:	WinNT
#	Modification time:	15. 06. 2019 18:54

#	Program:	/corina/corina34_cracker 3.40 0067  02.08.2006

@<TRIPOS>MOLECULE
ASD01000025
  51   52    0    0    0
SMALL
NO_CHARGES


@<TRIPOS>ATOM
   1 C1            -2.2521     1.7595    -0.3671 C.ar    
   2 C2            -1.6255     0.5223    -0.3949 C.ar    
   3 C3            -2.3703    -0.6316    -0.2442 C.ar    
   4 C4            -3.7389    -0.5539    -0.0659 C.ar    
   5 C5            -4.3661     0.6783    -0.0383 C.ar    
   6 C6            -3.6252     1.8350    -0.1822 C.ar    
   7 C7            -1.6901    -1.9760    -0.2748 C.3     
   8 N8            -2.3136    -2.8238     0.7554 N.am    
   9 C9            -1.7299    -2.4874    -1.7006 C.2     
  10 C10           -2.3302    -3.6767    -1.9254 C.2     
  11 N11           -2.8814    -4.3919    -0.9024 N.am    
  12 C12           -2.8749    -3.9882     0.3743 C.2     
  13 C13           -1.1586    -1.7449    -2.7599 C.2     
  14 O14           -0.4525    -0.6257    -2.4954 O.3     
  15 S15           -3.6028    -4.9842     1.5613 S.2     
  16 O16           -1.3036    -2.1152    -3.9099 O.2     
  17 O17           -1.5217     2.8959    -0.5152 O.3     
  18 C18            0.0962     0.0746    -3.6136 C.3     
  19 C19            0.8568     1.3071    -3.1202 C.3     
  20 C20           -3.1122    -8.1162    -1.5555 C.3     
  21 C21           -2.4832    -6.7965    -1.1043 C.3     
  22 C22           -3.5163    -5.6738    -1.2187 C.3     
  23 C23           -3.7187    -4.2505    -5.4461 C.3     
  24 C24           -3.5991    -3.6243    -4.0553 C.3     
  25 C25           -2.3924    -4.2220    -3.3289 C.3     
  26 H26           -0.5563     0.4611    -0.5346 H       
  27 H27           -4.3194    -1.4570     0.0518 H       
  28 H28           -5.4356     0.7363     0.1005 H       
  29 H29           -4.1154     2.7971    -0.1602 H       
  30 H30           -0.6457    -1.8273    -0.0007 H       
  31 H31           -2.3198    -2.5507     1.6862 H       
  32 H32           -1.4266     3.1856    -1.4329 H       
  33 H33            0.7788    -0.5814    -4.1538 H       
  34 H34           -0.7096     0.3868    -4.2779 H       
  35 H35            1.6627     0.9949    -2.4560 H       
  36 H36            1.2754     1.8413    -3.9732 H       
  37 H37            0.1743     1.9631    -2.5800 H       
  38 H38           -2.3762    -8.9161    -1.4740 H       
  39 H39           -3.9694    -8.3454    -0.9225 H       
  40 H40           -3.4390    -8.0274    -2.5916 H       
  41 H41           -2.1564    -6.8853    -0.0682 H       
  42 H42           -1.6260    -6.5674    -1.7373 H       
  43 H43           -4.3318    -5.8577    -0.5193 H       
  44 H44           -3.9091    -5.6437    -2.2350 H       
  45 H45           -4.5783    -3.8247    -5.9636 H       
  46 H46           -2.8128    -4.0447    -6.0163 H       
  47 H47           -3.8501    -5.3282    -5.3492 H       
  48 H48           -3.4676    -2.5466    -4.1521 H       
  49 H49           -4.5049    -3.8301    -3.4850 H       
  50 H50           -1.4794    -3.9572    -3.8624 H       
  51 H51           -2.4906    -5.3070    -3.2931 H       
@<TRIPOS>BOND
   1    1    2 ar
   2    1   17 1
   3    1    6 ar
   4    2    3 ar
   5    2   26 1
   6    3    4 ar
   7    3    7 1
   8    4    5 ar
   9    4   27 1
  10    5    6 ar
  11    5   28 1
  12    6   29 1
  13    7    8 1
  14    7    9 1
  15    7   30 1
  16    8   12 am
  17    8   31 1
  18    9   10 2
  19    9   13 1
  20   10   25 1
  21   10   11 1
  22   11   22 1
  23   11   12 am
  24   12   15 2
  25   13   14 1
  26   13   16 2
  27   14   18 1
  28   17   32 1
  29   18   19 1
  30   18   33 1
  31   18   34 1
  32   19   35 1
  33   19   36 1
  34   19   37 1
  35   20   21 1
  36   20   38 1
  37   20   39 1
  38   20   40 1
  39   21   22 1
  40   21   41 1
  41   21   42 1
  42   22   43 1
  43   22   44 1
  44   23   24 1
  45   23   45 1
  46   23   46 1
  47   23   47 1
  48   24   25 1
  49   24   48 1
  50   24   49 1
  51   25   50 1
  52   25   51 1

#	End of record

