#	Name: ASD01885748
#	Creating user name:	WinNT
#	Creation time:	15. 06. 2019 19:50

#	Modifying user name:	WinNT
#	Modification time:	15. 06. 2019 19:50

#	Program:	/corina/corina34_cracker 3.40 0067  02.08.2006

@<TRIPOS>MOLECULE
ASD01885748
  61   64    0    0    0
SMALL
NO_CHARGES


@<TRIPOS>ATOM
   1 C1            -0.0160     1.3291     0.0093 C.ar    
   2 C2            -1.2522     2.0239     0.0189 C.ar    
   3 C3            -2.4598     1.2808     0.0210 C.ar    
   4 C4            -2.3703    -0.1044     0.0135 C.ar    
   5 C5            -1.1104    -0.7137     0.0043 C.ar    
   6 N6             0.0021    -0.0041     0.0020 N.ar    
   7 C7             1.1365     3.4282     0.0092 C.ar    
   8 C8            -0.0805     4.1063     0.0248 C.ar    
   9 C9            -1.2606     3.4245     0.0266 C.ar    
  10 C10           -3.7750     1.9611     0.0313 C.ar    
  11 C11           -1.0235    -2.1940    -0.0038 C.2     
  12 C12            2.4228     4.2133     0.0076 C.3     
  13 N13            2.8509     4.4547     1.3920 N.3     
  14 C14            1.1823     2.0683     0.0019 C.ar    
  15 N15            0.1812    -2.7982    -0.0132 N.am    
  16 O16           -2.0383    -2.8621    -0.0018 O.2     
  17 C17            3.2115     3.1926     2.0608 C.3     
  18 C18            3.7731     3.5270     3.4221 C.2     
  19 N19            4.1847     4.7711     3.7722 N.pl3   
  20 C20            4.1385     5.9287     2.8751 C.3     
  21 C21            3.9606     5.4172     1.4399 C.3     
  22 C22           -4.7577     1.5985    -0.8903 C.ar    
  23 C23           -5.9812     2.2347    -0.8763 C.ar    
  24 C24           -6.2354     3.2328     0.0512 C.ar    
  25 C25           -5.2623     3.5968     0.9685 C.ar    
  26 C26           -4.0376     2.9626     0.9663 C.ar    
  27 F27           -7.4355     3.8531     0.0609 F       
  28 N28            3.9496     2.7324     4.4343 N.2     
  29 C29            4.4711     3.4295     5.4577 C.2     
  30 C30            4.6239     4.7093     5.0583 C.2     
  31 C31            4.8235     2.8783     6.8153 C.3     
  32 F32            4.6319     1.4925     6.8200 F       
  33 F33            6.1626     3.1649     7.1017 F       
  34 F34            4.0033     3.4657     7.7844 F       
  35 H35           -3.2662    -0.7075     0.0151 H       
  36 H36           -0.0888     5.1862     0.0355 H       
  37 H37           -2.1976     3.9615     0.0335 H       
  38 H38            3.1928     3.6481    -0.5175 H       
  39 H39            2.2656     5.1673    -0.4957 H       
  40 H40            2.1340     1.5579    -0.0092 H       
  41 H41            0.9913    -2.2648    -0.0147 H       
  42 H42            0.2380    -3.7665    -0.0184 H       
  43 H43            2.3249     2.5683     2.1716 H       
  44 H44            3.9624     2.6655     1.4721 H       
  45 H45            3.2980     6.5687     3.1439 H       
  46 H46            5.0690     6.4912     2.9525 H       
  47 H47            4.8785     4.9288     1.1125 H       
  48 H48            3.7417     6.2567     0.7800 H       
  49 H49           -4.5605     0.8212    -1.6137 H       
  50 H50           -6.7425     1.9551    -1.5896 H       
  51 H51           -5.4648     4.3756     1.6888 H       
  52 H52           -3.2799     3.2470     1.6815 H       
  53 H53            5.0180     5.5257     5.6453 H       
  54 C54           12.1644    13.4758    13.6896 C.3     
  55 C55           12.1852    11.9460    13.6812 C.3     
  56 H56           13.1870    13.8531    13.6819 H       
  57 H57           11.6372    13.8369    12.8066 H       
  58 H58           11.6542    13.8274    14.5864 H       
  59 H59           12.7123    11.5849    14.5643 H       
  60 H60           11.1626    11.5687    13.6889 H       
  61 H61           12.6953    11.5945    12.7844 H       
@<TRIPOS>BOND
   1    1    6 ar
   2    1   14 ar
   3    1    2 ar
   4    2    3 ar
   5    2    9 ar
   6    3   10 1
   7    3    4 ar
   8    4    5 ar
   9    4   35 1
  10    5   11 1
  11    5    6 ar
  12    7   12 1
  13    7    8 ar
  14    7   14 ar
  15    8    9 ar
  16    8   36 1
  17    9   37 1
  18   10   22 ar
  19   10   26 ar
  20   11   15 am
  21   11   16 2
  22   12   13 1
  23   12   38 1
  24   12   39 1
  25   13   17 1
  26   13   21 1
  27   14   40 1
  28   15   41 1
  29   15   42 1
  30   17   18 1
  31   17   43 1
  32   17   44 1
  33   18   19 1
  34   18   28 2
  35   19   20 1
  36   19   30 1
  37   20   21 1
  38   20   45 1
  39   20   46 1
  40   21   47 1
  41   21   48 1
  42   22   23 ar
  43   22   49 1
  44   23   24 ar
  45   23   50 1
  46   24   25 ar
  47   24   27 1
  48   25   26 ar
  49   25   51 1
  50   26   52 1
  51   28   29 1
  52   29   30 2
  53   29   31 1
  54   30   53 1
  55   31   32 1
  56   31   33 1
  57   31   34 1
  58   54   55 1
  59   54   56 1
  60   54   57 1
  61   54   58 1
  62   55   59 1
  63   55   60 1
  64   55   61 1

#	End of record

