#	Name: ASD05230002
#	Creating user name:	WinNT
#	Creation time:	15. 06. 2019 20:57

#	Modifying user name:	WinNT
#	Modification time:	15. 06. 2019 20:57

#	Program:	/corina/corina34_cracker 3.40 0067  02.08.2006

@<TRIPOS>MOLECULE
ASD05230002
  53   55    0    0    0
SMALL
NO_CHARGES


@<TRIPOS>ATOM
   1 C1             1.7498     1.6736     0.7414 C.3     
   2 O2             1.5524     0.2401     0.6209 O.3     
   3 C3             0.2827    -0.1952     0.5149 C.2     
   4 O4            -0.6352     0.6009     0.5229 O.2     
   5 N5             0.0299    -1.5141     0.3999 N.am    
   6 C6            -1.3494    -2.0109     0.2830 C.3     
   7 C7            -1.4295    -2.9440    -0.9300 C.3     
   8 N8            -0.4017    -3.9867    -0.8103 N.3     
   9 C9             0.9486    -3.4086    -0.8289 C.3     
  10 C10            1.1265    -2.4941     0.3820 C.3     
  11 C11           -0.5550    -5.0003    -1.8626 C.3     
  12 C12            0.6464    -5.9099    -1.8627 C.ar    
  13 C13            1.6565    -5.7203    -2.7878 C.ar    
  14 C14            2.7603    -6.5531    -2.7915 C.ar    
  15 C15            2.8584    -7.5779    -1.8703 C.ar    
  16 C16            1.8474    -7.7721    -0.9393 C.ar    
  17 C17            0.7407    -6.9304    -0.9339 C.ar    
  18 F18           -0.2458    -7.1156    -0.0297 F       
  19 N19            1.9442    -8.8104    -0.0042 N.am    
  20 C20            2.6771    -9.9056    -0.2867 C.2     
  21 O21            3.1720   -10.0382    -1.3894 O.2     
  22 N22            2.8614   -10.8540     0.6530 N.am    
  23 C23            3.5293   -12.0404     0.3284 C.ar    
  24 C24            3.3667   -12.6221    -0.9261 C.ar    
  25 C25            4.0492   -13.7962    -1.2006 C.ar    
  26 C26            4.8626   -14.3473    -0.2283 C.ar    
  27 N27            4.9954   -13.7714     0.9506 N.ar    
  28 C28            4.3685   -12.6516     1.2509 C.ar    
  29 C29            5.6078   -15.6245    -0.5194 C.3     
  30 H30            2.8156     1.8883     0.8189 H       
  31 H31            1.3418     2.1718    -0.1381 H       
  32 H32            1.2402     2.0368     1.6338 H       
  33 H33           -1.6187    -2.5597     1.1855 H       
  34 H34           -2.0306    -1.1713     0.1446 H       
  35 H35           -2.4153    -3.4076    -0.9678 H       
  36 H36           -1.2615    -2.3707    -1.8416 H       
  37 H37            1.6875    -4.2092    -0.7935 H       
  38 H38            1.0834    -2.8288    -1.7420 H       
  39 H39            2.0824    -1.9751     0.3116 H       
  40 H40            1.0949    -3.0868     1.2962 H       
  41 H41           -1.4545    -5.5864    -1.6742 H       
  42 H42           -0.6383    -4.5082    -2.8316 H       
  43 H43            1.5829    -4.9201    -3.5093 H       
  44 H44            3.5469    -6.4024    -3.5160 H       
  45 H45            3.7211    -8.2277    -1.8747 H       
  46 H46            1.4839    -8.7412     0.8468 H       
  47 H47            2.5311   -10.7143     1.5543 H       
  48 H48            2.7241   -12.1695    -1.6668 H       
  49 H49            3.9466   -14.2754    -2.1630 H       
  50 H50            4.5021   -12.2095     2.2272 H       
  51 H51            6.5825   -15.3873    -0.9458 H       
  52 H52            5.7425   -16.1854     0.4054 H       
  53 H53            5.0373   -16.2244    -1.2284 H       
@<TRIPOS>BOND
   1    1    2 1
   2    1   30 1
   3    1   31 1
   4    1   32 1
   5    2    3 1
   6    3    4 2
   7    3    5 am
   8    5    6 1
   9    5   10 1
  10    6    7 1
  11    6   33 1
  12    6   34 1
  13    7    8 1
  14    7   35 1
  15    7   36 1
  16    8    9 1
  17    8   11 1
  18    9   10 1
  19    9   37 1
  20    9   38 1
  21   10   39 1
  22   10   40 1
  23   11   12 1
  24   11   41 1
  25   11   42 1
  26   12   13 ar
  27   12   17 ar
  28   13   14 ar
  29   13   43 1
  30   14   15 ar
  31   14   44 1
  32   15   16 ar
  33   15   45 1
  34   16   17 ar
  35   16   19 1
  36   17   18 1
  37   19   20 am
  38   19   46 1
  39   20   21 2
  40   20   22 am
  41   22   23 1
  42   22   47 1
  43   23   24 ar
  44   23   28 ar
  45   24   25 ar
  46   24   48 1
  47   25   26 ar
  48   25   49 1
  49   26   27 ar
  50   26   29 1
  51   27   28 ar
  52   28   50 1
  53   29   51 1
  54   29   52 1
  55   29   53 1

#	End of record

