#	Name: ASD02560134
#	Creating user name:	WinNT
#	Creation time:	15. 06. 2019 20:24

#	Modifying user name:	WinNT
#	Modification time:	15. 06. 2019 20:24

#	Program:	/corina/corina34_cracker 3.40 0067  02.08.2006

@<TRIPOS>MOLECULE
ASD02560134
  59   63    0    0    0
SMALL
NO_CHARGES


@<TRIPOS>ATOM
   1 N1            -0.5249     1.8019     0.4237 N.2     
   2 N2            -0.7273     0.6064     0.1892 N.2     
   3 C3             0.8595     2.1780     0.1093 C.3     
   4 N4             1.5879     0.8883     0.0057 N.3     
   5 C5             0.4830    -0.0461    -0.3270 C.3     
   6 S6             0.7381    -1.6437     0.4934 S.3     
   7 C7             0.7562    -1.2008     2.2524 C.3     
   8 C8             0.9631    -2.4425     3.0809 C.2     
   9 O9             1.0862    -3.5202     2.5382 O.2     
  10 N10            1.0113    -2.3555     4.4250 N.am    
  11 Br11           0.9345     3.1459    -1.6003 Br      
  12 C12            2.5324     0.9292    -1.0175 C.ar    
  13 C13            1.0840    -3.5188     5.1993 C.ar    
  14 C14            1.5305    -3.4537     6.5129 C.ar    
  15 C15            1.6012    -4.6035     7.2743 C.ar    
  16 C16            1.2280    -5.8191     6.7302 C.ar    
  17 C17            0.7837    -5.8873     5.4227 C.ar    
  18 C18            0.7048    -4.7398     4.6578 C.ar    
  19 S19            1.3197    -7.2839     7.7051 S.o2    
  20 O20            1.4251    -8.3676     6.7921 O.2     
  21 O21            2.2781    -7.0292     8.7230 O.2     
  22 C22            3.5759     1.8790    -0.9860 C.ar    
  23 C23            2.4597     0.0383    -2.0674 C.ar    
  24 C24            3.3984     0.0704    -3.0940 C.ar    
  25 C25            4.4125     0.9792    -3.0912 C.ar    
  26 C26            4.5253     1.9016    -2.0373 C.ar    
  27 C27            5.5616     2.8512    -2.0086 C.ar    
  28 C28            5.6410     3.7303    -0.9726 C.ar    
  29 C29            4.7090     3.7043     0.0630 C.ar    
  30 C30            3.6902     2.8010     0.0661 C.ar    
  31 N31           -0.1393    -7.4563     8.4692 N.am    
  32 C32            5.4163     0.9922    -4.2152 C.3     
  33 C33            6.2399    -0.2771    -4.4416 C.3     
  34 C34            5.1321     0.1017    -5.4265 C.3     
  35 C35            1.9377    -2.1297     7.1064 C.3     
  36 H36            1.2785     2.7873     0.9101 H       
  37 H37            0.4111    -0.1799    -1.4064 H       
  38 H38            1.5678    -0.4983     2.4419 H       
  39 H39           -0.1941    -0.7392     2.5207 H       
  40 H40            0.9955    -1.4865     4.8557 H       
  41 H41            1.9485    -4.5536     8.2957 H       
  42 H42            0.4933    -6.8381     5.0006 H       
  43 H43            0.3573    -4.7937     3.6366 H       
  44 H44            1.6654    -0.6930    -2.0930 H       
  45 H45            3.3216    -0.6372    -3.9063 H       
  46 H46            6.2911     2.8827    -2.8043 H       
  47 H47            6.4382     4.4586    -0.9528 H       
  48 H48            4.7944     4.4129     0.8736 H       
  49 H49            2.9751     2.7923     0.8753 H       
  50 H50           -0.8418    -6.8028     8.3265 H       
  51 H51           -0.2915    -8.2109     9.0595 H       
  52 H52            5.9058     1.9489    -4.3973 H       
  53 H53            7.2712    -0.1555    -4.7729 H       
  54 H54            6.0558    -1.1216    -3.7775 H       
  55 H55            4.2192    -0.4936    -5.4104 H       
  56 H56            5.4345     0.4726    -6.4058 H       
  57 H57            1.0714    -1.6574     7.5697 H       
  58 H58            2.7095    -2.2910     7.8591 H       
  59 H59            2.3267    -1.4832     6.3198 H       
@<TRIPOS>BOND
   1    1    2 2
   2    1    3 1
   3    2    5 1
   4    3    4 1
   5    3   11 1
   6    3   36 1
   7    4    5 1
   8    4   12 1
   9    5    6 1
  10    5   37 1
  11    6    7 1
  12    7    8 1
  13    7   38 1
  14    7   39 1
  15    8    9 2
  16    8   10 am
  17   10   13 1
  18   10   40 1
  19   12   22 ar
  20   12   23 ar
  21   13   14 ar
  22   13   18 ar
  23   14   15 ar
  24   14   35 1
  25   15   16 ar
  26   15   41 1
  27   16   17 ar
  28   16   19 1
  29   17   18 ar
  30   17   42 1
  31   18   43 1
  32   19   20 2
  33   19   21 2
  34   19   31 am
  35   22   26 ar
  36   22   30 ar
  37   23   24 ar
  38   23   44 1
  39   24   25 ar
  40   24   45 1
  41   25   26 ar
  42   25   32 1
  43   26   27 ar
  44   27   28 ar
  45   27   46 1
  46   28   29 ar
  47   28   47 1
  48   29   30 ar
  49   29   48 1
  50   30   49 1
  51   31   50 1
  52   31   51 1
  53   32   33 1
  54   32   34 1
  55   32   52 1
  56   33   34 1
  57   33   53 1
  58   33   54 1
  59   34   55 1
  60   34   56 1
  61   35   57 1
  62   35   58 1
  63   35   59 1

#	End of record

