#	Name: ASD03950032
#	Creating user name:	WinNT
#	Creation time:	15. 06. 2019 20:48

#	Modifying user name:	WinNT
#	Modification time:	15. 06. 2019 20:48

#	Program:	/corina/corina34_cracker 3.40 0067  02.08.2006

@<TRIPOS>MOLECULE
ASD03950032
  53   56    0    0    0
SMALL
NO_CHARGES


@<TRIPOS>ATOM
   1 N1            -0.0169     1.3942     0.0097 N.pl3   
   2 N2             0.0021    -0.0041     0.0020 N.2     
   3 C3             1.2311    -0.4341    -0.0120 C.2     
   4 C4             2.1094     0.7333    -0.0141 C.ar    
   5 C5             3.4968     0.8989    -0.0264 C.ar    
   6 C6             4.0413     2.1754    -0.0248 C.ar    
   7 C7             3.2114     3.2978    -0.0109 C.ar    
   8 C8             1.8300     3.1501     0.0015 C.ar    
   9 C9             1.2665     1.8606    -0.0000 C.ar    
  10 C10            0.9578     4.3397     0.0157 C.2     
  11 O11           -0.2509     4.2074     0.0265 O.2     
  12 N12            1.5007     5.5733     0.0167 N.am    
  13 C13            5.5153     2.3484    -0.0374 C.ar    
  14 C14            6.0688     3.6271    -0.0358 C.ar    
  15 C15            7.4397     3.7833    -0.0471 C.ar    
  16 C16            8.2656     2.6711    -0.0600 C.ar    
  17 C17            7.7195     1.3978    -0.0621 C.ar    
  18 C18            6.3497     1.2325    -0.0450 C.ar    
  19 F19            9.6073     2.8285    -0.0710 F       
  20 N20            1.2106    -4.6672    -0.0358 N.am    
  21 C21            1.6134    -4.0366     1.2286 C.3     
  22 C22            1.1378    -2.5803     1.2268 C.3     
  23 C23            1.6687    -1.8761    -0.0239 C.3     
  24 C24            1.1164    -2.5662    -1.2733 C.3     
  25 C25            1.5917    -4.0222    -1.2998 C.3     
  26 S26            0.3494    -6.0816    -0.0365 S.o2    
  27 O27            0.6709    -6.6871    -1.2812 O.2     
  28 O28            0.6972    -6.7043     1.1926 O.2     
  29 C29           -1.3863    -5.5548    -0.0144 C.3     
  30 C30           -2.2933    -6.7870    -0.0133 C.3     
  31 H31           -0.8151     1.9454     0.0167 H       
  32 H32            4.1445     0.0348    -0.0369 H       
  33 H33            3.6456     4.2866    -0.0094 H       
  34 H34            2.4649     5.6789     0.0081 H       
  35 H35            0.9272     6.3556     0.0260 H       
  36 H36            5.4257     4.4947    -0.0262 H       
  37 H37            7.8695     4.7741    -0.0463 H       
  38 H38            8.3668     0.5334    -0.0725 H       
  39 H39            5.9248     0.2396    -0.0418 H       
  40 H40            1.1578    -4.5687     2.0637 H       
  41 H41            2.6989    -4.0663     1.3223 H       
  42 H42            0.0481    -2.5535     1.2245 H       
  43 H43            1.5127    -2.0740     2.1162 H       
  44 H44            2.7576    -1.9251    -0.0336 H       
  45 H45            0.0269    -2.5395    -1.2520 H       
  46 H46            1.4761    -2.0498    -2.1632 H       
  47 H47            2.6755    -4.0508    -1.4123 H       
  48 H48            1.1219    -4.5449    -2.1329 H       
  49 H49           -1.5752    -4.9638     0.8818 H       
  50 H50           -1.5941    -4.9514    -0.8980 H       
  51 H51           -3.3362    -6.4704     0.0000 H       
  52 H52           -2.1044    -7.3780    -0.9094 H       
  53 H53           -2.0854    -7.3903     0.8704 H       
@<TRIPOS>BOND
   1    1    2 1
   2    1    9 1
   3    1   31 1
   4    2    3 2
   5    3    4 1
   6    3   23 1
   7    4    5 ar
   8    4    9 ar
   9    5    6 ar
  10    5   32 1
  11    6    7 ar
  12    6   13 1
  13    7    8 ar
  14    7   33 1
  15    8    9 ar
  16    8   10 1
  17   10   11 2
  18   10   12 am
  19   12   34 1
  20   12   35 1
  21   13   14 ar
  22   13   18 ar
  23   14   15 ar
  24   14   36 1
  25   15   16 ar
  26   15   37 1
  27   16   17 ar
  28   16   19 1
  29   17   18 ar
  30   17   38 1
  31   18   39 1
  32   20   21 1
  33   20   25 1
  34   20   26 am
  35   21   22 1
  36   21   40 1
  37   21   41 1
  38   22   23 1
  39   22   42 1
  40   22   43 1
  41   23   24 1
  42   23   44 1
  43   24   25 1
  44   24   45 1
  45   24   46 1
  46   25   47 1
  47   25   48 1
  48   26   27 2
  49   26   28 2
  50   26   29 1
  51   29   30 1
  52   29   49 1
  53   29   50 1
  54   30   51 1
  55   30   52 1
  56   30   53 1

#	End of record

