#	Name: ASD01812950
#	Creating user name:	WinNT
#	Creation time:	15. 06. 2019 19:29

#	Modifying user name:	WinNT
#	Modification time:	15. 06. 2019 19:29

#	Program:	/corina/corina34_cracker 3.40 0067  02.08.2006

@<TRIPOS>MOLECULE
ASD01812950
  48   52    0    0    0
SMALL
NO_CHARGES


@<TRIPOS>ATOM
   1 C1            -0.0166     1.3762     0.0096 C.ar    
   2 C2             0.0021    -0.0041     0.0020 C.ar    
   3 C3             1.2089    -0.6874    -0.0132 C.ar    
   4 C4             2.3943     0.0071    -0.0204 C.ar    
   5 C5             2.3946     1.4053    -0.0129 C.ar    
   6 C6             1.1723     2.0915     0.0021 C.ar    
   7 C7             3.8414    -0.4183    -0.0360 C.3     
   8 N8             4.6317     0.8181    -0.0366 N.am    
   9 C9             3.7920     1.8677    -0.0233 C.2     
  10 C10            6.0945     0.8958    -0.0497 C.3     
  11 C11            6.5831     0.9301    -1.4749 C.ar    
  12 O12            1.1519     3.4476     0.0096 O.3     
  13 O13            4.1377     3.0334    -0.0208 O.2     
  14 C14            6.7433     2.1424    -2.1204 C.ar    
  15 C15            7.1908     2.1770    -3.4266 C.ar    
  16 C16            7.4800     0.9930    -4.0915 C.ar    
  17 C17            7.3181    -0.2227    -3.4407 C.ar    
  18 C18            6.8756    -0.2506    -2.1326 C.ar    
  19 C19           -0.0581     4.0679     0.0246 C.ar    
  20 N20            8.1413     2.1746    -6.1905 N.2     
  21 N21            7.9340     1.0249    -5.4174 N.pl3   
  22 C22            8.2502    -0.0487    -6.1763 C.2     
  23 C23            8.6441     0.4057    -7.3885 C.2     
  24 C24            8.5666     1.8026    -7.3710 C.2     
  25 C25           -0.6658     4.3788     1.2338 C.ar    
  26 C26           -1.8969     5.0104     1.2455 C.ar    
  27 C27           -2.5221     5.3315     0.0550 C.ar    
  28 C28           -1.9200     5.0229    -1.1508 C.ar    
  29 C29           -0.6862     4.3969    -1.1695 C.ar    
  30 F30           -0.0959     4.1008    -2.3480 F       
  31 F31           -0.0559     4.0645     2.3977 F       
  32 H32           -0.9603     1.9014     0.0169 H       
  33 H33           -0.9272    -0.5543     0.0083 H       
  34 H34            1.2168    -1.7673    -0.0191 H       
  35 H35            4.0683    -1.0076     0.8524 H       
  36 H36            4.0519    -0.9980    -0.9347 H       
  37 H37            6.4149     1.8010     0.4661 H       
  38 H38            6.5092     0.0236     0.4557 H       
  39 H39            6.5179     3.0631    -1.6028 H       
  40 H40            7.3154     3.1242    -3.9304 H       
  41 H41            7.5419    -1.1454    -3.9554 H       
  42 H42            6.7541    -1.1957    -1.6242 H       
  43 H43            8.1980    -1.0831    -5.8700 H       
  44 H44            8.9626    -0.2025    -8.2223 H       
  45 H45            8.8150     2.4607    -8.1905 H       
  46 H46           -2.3700     5.2524     2.1857 H       
  47 H47           -3.4831     5.8241     0.0668 H       
  48 H48           -2.4114     5.2745    -2.0790 H       
@<TRIPOS>BOND
   1    1    2 ar
   2    1    6 ar
   3    1   32 1
   4    2    3 ar
   5    2   33 1
   6    3    4 ar
   7    3   34 1
   8    4    7 1
   9    4    5 ar
  10    5    6 ar
  11    5    9 1
  12    6   12 1
  13    7    8 1
  14    7   35 1
  15    7   36 1
  16    8    9 am
  17    8   10 1
  18    9   13 2
  19   10   11 1
  20   10   37 1
  21   10   38 1
  22   11   14 ar
  23   11   18 ar
  24   12   19 1
  25   14   15 ar
  26   14   39 1
  27   15   16 ar
  28   15   40 1
  29   16   17 ar
  30   16   21 1
  31   17   18 ar
  32   17   41 1
  33   18   42 1
  34   19   25 ar
  35   19   29 ar
  36   20   21 1
  37   20   24 2
  38   21   22 1
  39   22   23 2
  40   22   43 1
  41   23   24 1
  42   23   44 1
  43   24   45 1
  44   25   26 ar
  45   25   31 1
  46   26   27 ar
  47   26   46 1
  48   27   28 ar
  49   27   47 1
  50   28   29 ar
  51   28   48 1
  52   29   30 1

#	End of record

