#	Name: ASD03082306
#	Creating user name:	WinNT
#	Creation time:	15. 06. 2019 20:27

#	Modifying user name:	WinNT
#	Modification time:	15. 06. 2019 20:27

#	Program:	/corina/corina34_cracker 3.40 0067  02.08.2006

@<TRIPOS>MOLECULE
ASD03082306
  45   47    0    0    0
SMALL
NO_CHARGES


@<TRIPOS>ATOM
   1 N1             0.0247     1.4308    -0.1386 N.pl3   
   2 N2            -0.0183     0.0278    -0.1792 N.2     
   3 C3             1.2027    -0.3992     0.0498 C.2     
   4 N4             2.0040     0.6514     0.2306 N.2     
   5 C5             1.3085     1.7653     0.1201 C.2     
   6 N6             1.5978    -1.7374     0.0968 N.pl3   
   7 C7             2.9515    -2.0626     0.2325 C.ar    
   8 C8             3.3221    -3.2766     0.7967 C.ar    
   9 C9             4.6591    -3.5955     0.9297 C.ar    
  10 C10            5.6301    -2.7061     0.5009 C.ar    
  11 C11            5.2631    -1.4955    -0.0618 C.ar    
  12 C12            3.9268    -1.1747    -0.2020 C.ar    
  13 C13            1.8395     3.1403     0.2555 C.ar    
  14 C14           -1.0979     2.3497    -0.3426 C.3     
  15 C15            3.2086     3.3980     0.1261 C.ar    
  16 C16            3.6614     4.6944     0.2596 C.ar    
  17 N17            2.8234     5.6830     0.5061 N.ar    
  18 C18            1.5248     5.4841     0.6355 C.ar    
  19 C19            0.9858     4.2184     0.5105 C.ar    
  20 C20           -1.7821     2.6073     0.9752 C.2     
  21 N21           -2.8493     3.4284     1.0313 N.am    
  22 C22           -3.5144     3.6788     2.3124 C.3     
  23 O23           -1.3723     2.0756     1.9853 O.2     
  24 C24           -3.3443     4.0706    -0.1889 C.3     
  25 F25            6.9376    -3.0199     0.6323 F       
  26 C26            5.0618    -4.9122     1.5422 C.3     
  27 Cl27           0.4798     6.8320     0.9597 Cl      
  28 H28            0.9336    -2.4417     0.0355 H       
  29 H29            2.5651    -3.9704     1.1316 H       
  30 H30            6.0221    -0.8032    -0.3952 H       
  31 H31            3.6409    -0.2324    -0.6454 H       
  32 H32           -0.7279     3.2906    -0.7499 H       
  33 H33           -1.8083     1.9062    -1.0402 H       
  34 H34            3.9009     2.5939    -0.0750 H       
  35 H35            4.7166     4.9027     0.1613 H       
  36 H36           -0.0775     4.0623     0.6174 H       
  37 H37           -3.0556     4.5402     2.7977 H       
  38 H38           -4.5718     3.8796     2.1397 H       
  39 H39           -3.4108     2.8029     2.9528 H       
  40 H40           -2.7279     3.7670    -1.0350 H       
  41 H41           -4.3769     3.7692    -0.3649 H       
  42 H42           -3.2964     5.1536    -0.0745 H       
  43 H43            5.1473    -5.6660     0.7595 H       
  44 H44            6.0222    -4.8003     2.0453 H       
  45 H45            4.3071    -5.2227     2.2648 H       
@<TRIPOS>BOND
   1    1    2 1
   2    1    5 1
   3    1   14 1
   4    2    3 2
   5    3    4 1
   6    3    6 1
   7    4    5 2
   8    5   13 1
   9    6    7 1
  10    6   28 1
  11    7    8 ar
  12    7   12 ar
  13    8    9 ar
  14    8   29 1
  15    9   10 ar
  16    9   26 1
  17   10   11 ar
  18   10   25 1
  19   11   12 ar
  20   11   30 1
  21   12   31 1
  22   13   15 ar
  23   13   19 ar
  24   14   20 1
  25   14   32 1
  26   14   33 1
  27   15   16 ar
  28   15   34 1
  29   16   17 ar
  30   16   35 1
  31   17   18 ar
  32   18   19 ar
  33   18   27 1
  34   19   36 1
  35   20   21 am
  36   20   23 2
  37   21   22 1
  38   21   24 1
  39   22   37 1
  40   22   38 1
  41   22   39 1
  42   24   40 1
  43   24   41 1
  44   24   42 1
  45   26   43 1
  46   26   44 1
  47   26   45 1

#	End of record

