#	Name: ASD08150745
#	Creating user name:	WinNT
#	Creation time:	15. 06. 2019 21:16

#	Modifying user name:	WinNT
#	Modification time:	15. 06. 2019 21:16

#	Program:	/corina/corina34_cracker 3.40 0067  02.08.2006

@<TRIPOS>MOLECULE
ASD08150745
  31   32    0    0    0
SMALL
NO_CHARGES


@<TRIPOS>ATOM
   1 C1            -0.0194     1.4675     0.0390 C.2     
   2 C2            -0.0024    -0.0065     0.0447 C.ar    
   3 C3            -0.0063    -0.7083     1.2606 C.ar    
   4 C4             0.0094    -2.0973     1.2524 C.ar    
   5 C5             0.0286    -2.7814     0.0540 C.ar    
   6 C6             0.0325    -2.0916    -1.1477 C.ar    
   7 C7             0.0118    -0.7139    -1.1599 C.ar    
   8 O8             1.0267     2.0877     0.0471 O.2     
   9 N9            -1.1941     2.1278     0.0193 N.am    
  10 C10            0.0104     0.0289    -2.4711 C.3     
  11 C11           -1.2149     3.5221     0.1326 C.ar    
  12 C12           -2.1871     4.2607    -0.5320 C.ar    
  13 C13           -2.2043     5.6377    -0.4177 C.ar    
  14 C14           -1.2556     6.2804     0.3567 C.ar    
  15 C15           -0.2875     5.5483     1.0187 C.ar    
  16 C16           -0.2680     4.1709     0.9135 C.ar    
  17 Cl17          -3.3777     3.4543    -1.5046 Cl      
  18 N18           -0.0252    -0.0175     2.4653 N.pl3   
  19 H19            0.0068    -2.6423     2.1848 H       
  20 H20            0.0411    -3.8613     0.0529 H       
  21 H21            0.0480    -2.6368    -2.0799 H       
  22 H22           -2.0252     1.6363    -0.0735 H       
  23 H23            1.0376     0.2196    -2.7818 H       
  24 H24           -0.4928    -0.5720    -3.2286 H       
  25 H25           -0.5147     0.9766    -2.3512 H       
  26 H26           -2.9590     6.2125    -0.9338 H       
  27 H27           -1.2709     7.3567     0.4442 H       
  28 H28            0.4517     6.0535     1.6226 H       
  29 H29            0.4860     3.5996     1.4346 H       
  30 H30           -0.0358     0.9525     2.4681 H       
  31 H31           -0.0279    -0.5049     3.3039 H       
@<TRIPOS>BOND
   1    1    2 1
   2    1    8 2
   3    1    9 am
   4    2    3 ar
   5    2    7 ar
   6    3    4 ar
   7    3   18 1
   8    4    5 ar
   9    4   19 1
  10    5    6 ar
  11    5   20 1
  12    6    7 ar
  13    6   21 1
  14    7   10 1
  15    9   11 1
  16    9   22 1
  17   10   23 1
  18   10   24 1
  19   10   25 1
  20   11   12 ar
  21   11   16 ar
  22   12   13 ar
  23   12   17 1
  24   13   14 ar
  25   13   26 1
  26   14   15 ar
  27   14   27 1
  28   15   16 ar
  29   15   28 1
  30   16   29 1
  31   18   30 1
  32   18   31 1

#	End of record

