#	Name: ASD01910321
#	Creating user name:	WinNT
#	Creation time:	15. 06. 2019 19:55

#	Modifying user name:	WinNT
#	Modification time:	15. 06. 2019 19:55

#	Program:	/corina/corina34_cracker 3.40 0067  02.08.2006

@<TRIPOS>MOLECULE
ASD01910321
  42   44    0    0    0
SMALL
NO_CHARGES


@<TRIPOS>ATOM
   1 C1             0.0703     1.1998    -0.3537 C.ar    
   2 C2             0.0475    -0.0753     0.1838 C.ar    
   3 C3             1.2033    -0.6406     0.6923 C.ar    
   4 C4             2.3904     0.0656     0.6662 C.ar    
   5 C5             2.4202     1.3559     0.1233 C.ar    
   6 C6             1.2471     1.9181    -0.3873 C.ar    
   7 C7             3.6458     2.0958     0.0923 C.1     
   8 C8             4.6506     2.7023     0.0669 C.1     
   9 C9             5.8763     3.4422     0.0359 C.ar    
  10 C10            5.9021     4.7316    -0.5076 C.ar    
  11 C11            7.0712     5.4368    -0.5364 C.ar    
  12 C12            8.2422     4.8709    -0.0231 C.ar    
  13 C13            8.2172     3.5826     0.5195 C.ar    
  14 C14            7.0476     2.8785     0.5542 C.ar    
  15 C15            9.5055     5.6338    -0.0546 C.2     
  16 O16            9.5402     6.7704     0.3757 O.2     
  17 N17           10.6205     5.0703    -0.5604 N.am    
  18 C18           11.8643     5.8440    -0.6749 C.3     
  19 C19           12.3657     5.7603    -2.1200 C.3     
  20 C20           12.5002     4.2906    -2.5248 C.3     
  21 C21           11.1309     3.6114    -2.4486 C.3     
  22 C22           10.6170     3.6690    -1.0020 C.3     
  23 O23           12.9985     4.2086    -3.8616 O.3     
  24 F24            3.5187    -0.4867     1.1632 F       
  25 H25           -0.8357     1.6321    -0.7522 H       
  26 H26           -0.8777    -0.6320     0.2069 H       
  27 H27            1.1774    -1.6358     1.1107 H       
  28 H28            1.2622     2.9127    -0.8080 H       
  29 H29            4.9978     5.1687    -0.9044 H       
  30 H30            7.0914     6.4317    -0.9560 H       
  31 H31            9.1222     3.1459     0.9155 H       
  32 H32            7.0284     1.8835     0.9738 H       
  33 H33           11.6725     6.8849    -0.4143 H       
  34 H34           12.6157     5.4294    -0.0028 H       
  35 H35           11.6549     6.2562    -2.7810 H       
  36 H36           13.3369     6.2492    -2.1970 H       
  37 H37           13.1923     3.7894    -1.8481 H       
  38 H38           10.4316     4.1275    -3.1065 H       
  39 H39           11.2231     2.5707    -2.7594 H       
  40 H40           11.2676     3.0761    -0.3592 H       
  41 H41            9.6011     3.2762    -0.9592 H       
  42 H42           13.1091     3.3042    -4.1854 H       
@<TRIPOS>BOND
   1    1    2 ar
   2    1    6 ar
   3    1   25 1
   4    2    3 ar
   5    2   26 1
   6    3    4 ar
   7    3   27 1
   8    4    5 ar
   9    4   24 1
  10    5    6 ar
  11    5    7 1
  12    6   28 1
  13    7    8 3
  14    8    9 1
  15    9   10 ar
  16    9   14 ar
  17   10   11 ar
  18   10   29 1
  19   11   12 ar
  20   11   30 1
  21   12   13 ar
  22   12   15 1
  23   13   14 ar
  24   13   31 1
  25   14   32 1
  26   15   16 2
  27   15   17 am
  28   17   18 1
  29   17   22 1
  30   18   19 1
  31   18   33 1
  32   18   34 1
  33   19   20 1
  34   19   35 1
  35   19   36 1
  36   20   21 1
  37   20   23 1
  38   20   37 1
  39   21   22 1
  40   21   38 1
  41   21   39 1
  42   22   40 1
  43   22   41 1
  44   23   42 1

#	End of record

