#	Name: ASD01903340
#	Creating user name:	WinNT
#	Creation time:	15. 06. 2019 19:54

#	Modifying user name:	WinNT
#	Modification time:	15. 06. 2019 19:54

#	Program:	/corina/corina34_cracker 3.40 0067  02.08.2006

@<TRIPOS>MOLECULE
ASD01903340
  40   43    0    0    0
SMALL
NO_CHARGES


@<TRIPOS>ATOM
   1 C1            -0.0233     1.3665     0.1888 C.ar    
   2 C2             0.0102    -0.0074     0.3040 C.ar    
   3 C3             1.2067    -0.6995     0.1546 C.ar    
   4 C4             2.3659    -0.0072    -0.1108 C.ar    
   5 C5             2.3294     1.3777    -0.2269 C.ar    
   6 C6             1.1414     2.0621    -0.0778 C.ar    
   7 S7             1.5173    -2.4329     0.2533 S.o2    
   8 N8             3.1423    -2.6379    -0.0147 N.am    
   9 S9             3.7371    -1.1072    -0.2549 S.o2    
  10 O10            4.1616    -1.0474    -1.6097 O.2     
  11 O11            4.5937    -0.8302     0.8445 O.2     
  12 O12            1.2804    -2.8089     1.6030 O.2     
  13 O13            0.8483    -3.0261    -0.8511 O.2     
  14 C14            3.8562    -3.8406    -0.0336 C.ar    
  15 C15            5.2240    -3.8327    -0.2752 C.ar    
  16 C16            5.9287    -5.0196    -0.2933 C.ar    
  17 C17            5.2698    -6.2218    -0.0704 C.ar    
  18 C18            3.9022    -6.2299     0.1712 C.ar    
  19 C19            3.1984    -5.0425     0.1950 C.ar    
  20 N20            5.9845    -7.4258    -0.0898 N.am    
  21 C21            5.4116    -8.5417    -0.5829 C.2     
  22 C22            6.2020    -9.7923    -0.6992 C.ar    
  23 O23            4.2480    -8.5236    -0.9323 O.2     
  24 C24            5.6205   -10.9540    -1.2081 C.ar    
  25 C25            6.4034   -12.0965    -1.2964 C.ar    
  26 N26            7.6631   -12.0461    -0.8987 N.ar    
  27 C27            8.1818   -10.9308    -0.4222 C.ar    
  28 N28            7.4791    -9.8229    -0.3250 N.ar    
  29 H29           -0.9572     1.8970     0.3021 H       
  30 H30           -0.9001    -0.5499     0.5123 H       
  31 H31            3.2387     1.9220    -0.4352 H       
  32 H32            1.1208     3.1379    -0.1698 H       
  33 H33            5.7362    -2.8979    -0.4492 H       
  34 H34            6.9922    -5.0134    -0.4812 H       
  35 H35            3.3899    -7.1648     0.3441 H       
  36 H36            2.1350    -5.0487     0.3833 H       
  37 H37            6.8918    -7.4568     0.2518 H       
  38 H38            4.5880   -10.9640    -1.5247 H       
  39 H39            5.9888   -13.0151    -1.6846 H       
  40 H40            9.2146   -10.9260    -0.1066 H       
@<TRIPOS>BOND
   1    1    2 ar
   2    1    6 ar
   3    1   29 1
   4    2    3 ar
   5    2   30 1
   6    3    4 ar
   7    3    7 1
   8    4    5 ar
   9    4    9 1
  10    5    6 ar
  11    5   31 1
  12    6   32 1
  13    7    8 am
  14    7   12 2
  15    7   13 2
  16    8    9 am
  17    8   14 1
  18    9   10 2
  19    9   11 2
  20   14   15 ar
  21   14   19 ar
  22   15   16 ar
  23   15   33 1
  24   16   17 ar
  25   16   34 1
  26   17   18 ar
  27   17   20 1
  28   18   19 ar
  29   18   35 1
  30   19   36 1
  31   20   21 am
  32   20   37 1
  33   21   22 1
  34   21   23 2
  35   22   24 ar
  36   22   28 ar
  37   24   25 ar
  38   24   38 1
  39   25   26 ar
  40   25   39 1
  41   26   27 ar
  42   27   28 ar
  43   27   40 1

#	End of record

