#	Name: ASD01911110
#	Creating user name:	WinNT
#	Creation time:	15. 06. 2019 19:57

#	Modifying user name:	WinNT
#	Modification time:	15. 06. 2019 19:57

#	Program:	/corina/corina34_cracker 3.40 0067  02.08.2006

@<TRIPOS>MOLECULE
ASD01911110
  45   48    0    0    0
SMALL
NO_CHARGES


@<TRIPOS>ATOM
   1 C1            -0.0306     1.2458     0.3323 C.2     
   2 O2            -0.0142     0.0424     0.5039 O.2     
   3 N3             1.1248     1.9175     0.1581 N.am    
   4 C4             2.4170     1.2300     0.2859 C.3     
   5 C5             3.2833     1.9918     1.2938 C.3     
   6 C6             3.3906     3.4566     0.8637 C.3     
   7 C7             1.9970     4.0891     0.8492 C.3     
   8 C8             1.1160     3.3498    -0.1692 C.3     
   9 O9             5.5153     1.2715     0.3182 O.3     
  10 N10            6.5352     0.7295     0.6888 N.2     
  11 C11            6.4523     0.4347     1.9570 C.2     
  12 N12            5.2431     0.8505     2.3867 N.2     
  13 C13            4.6593     1.3788     1.3389 C.2     
  14 O14            7.4049    -0.1762     2.7044 O.3     
  15 C15            8.5641    -0.5343     2.0920 C.ar    
  16 C16            8.8224    -0.1163     0.7945 C.ar    
  17 C17           10.0014    -0.4818     0.1743 C.ar    
  18 C18           10.9235    -1.2637     0.8453 C.ar    
  19 C19           10.6682    -1.6819     2.1382 C.ar    
  20 C20            9.4937    -1.3137     2.7653 C.ar    
  21 C21           -1.3170     1.9709     0.3087 C.ar    
  22 C22           -2.2230     1.8294     1.3648 C.ar    
  23 C23           -3.4250     2.5124     1.3346 C.ar    
  24 C24           -3.7305     3.3320     0.2641 C.ar    
  25 C25           -2.8375     3.4756    -0.7837 C.ar    
  26 C26           -1.6324     2.8055    -0.7653 C.ar    
  27 F27           -1.9250     1.0278     2.4106 F       
  28 H28            2.2556     0.2115     0.6390 H       
  29 H29            2.9167     1.2082    -0.6826 H       
  30 H30            2.8267     1.9352     2.2819 H       
  31 H31            4.0267     3.9956     1.5658 H       
  32 H32            3.8245     3.5111    -0.1347 H       
  33 H33            1.5526     4.0128     1.8416 H       
  34 H34            2.0768     5.1385     0.5655 H       
  35 H35            1.5118     3.4974    -1.1741 H       
  36 H36            0.0960     3.7304    -0.1164 H       
  37 H37            8.1023     0.4939     0.2698 H       
  38 H38           10.2030    -0.1567    -0.8357 H       
  39 H39           11.8445    -1.5486     0.3585 H       
  40 H40           11.3897    -2.2933     2.6599 H       
  41 H41            9.2969    -1.6367     3.7770 H       
  42 H42           -4.1265     2.4050     2.1487 H       
  43 H43           -4.6709     3.8627     0.2450 H       
  44 H44           -3.0836     4.1178    -1.6164 H       
  45 H45           -0.9357     2.9226    -1.5822 H       
@<TRIPOS>BOND
   1    1    2 2
   2    1    3 am
   3    1   21 1
   4    3    4 1
   5    3    8 1
   6    4    5 1
   7    4   28 1
   8    4   29 1
   9    5    6 1
  10    5   13 1
  11    5   30 1
  12    6    7 1
  13    6   31 1
  14    6   32 1
  15    7    8 1
  16    7   33 1
  17    7   34 1
  18    8   35 1
  19    8   36 1
  20    9   10 1
  21    9   13 1
  22   10   11 2
  23   11   12 1
  24   11   14 1
  25   12   13 2
  26   14   15 1
  27   15   16 ar
  28   15   20 ar
  29   16   17 ar
  30   16   37 1
  31   17   18 ar
  32   17   38 1
  33   18   19 ar
  34   18   39 1
  35   19   20 ar
  36   19   40 1
  37   20   41 1
  38   21   22 ar
  39   21   26 ar
  40   22   23 ar
  41   22   27 1
  42   23   24 ar
  43   23   42 1
  44   24   25 ar
  45   24   43 1
  46   25   26 ar
  47   25   44 1
  48   26   45 1

#	End of record

