#	Name: ASD00170559
#	Creating user name:	WinNT
#	Creation time:	15. 06. 2019 18:32

#	Modifying user name:	WinNT
#	Modification time:	15. 06. 2019 18:32

#	Program:	/corina/corina34_cracker 3.40 0067  02.08.2006

@<TRIPOS>MOLECULE
ASD00170559
  54   58    0    0    0
SMALL
NO_CHARGES


@<TRIPOS>ATOM
   1 C1            -0.5922     1.9717     0.0294 C.3     
   2 C2            -0.4888     0.4543    -0.0915 C.3     
   3 C3             0.2599    -0.0997     1.1242 C.3     
   4 N4            -0.4509     0.2810     2.3516 N.3     
   5 C5            -0.4979     1.7401     2.5106 C.3     
   6 C6            -1.2699     2.3568     1.3406 C.3     
   7 C7             0.1522    -0.3577     3.5290 C.3     
   8 C8            -0.4367     0.2392     4.7812 C.2     
   9 C9             0.1720     1.1683     5.5016 C.2     
  10 S10           -0.8040     1.6276     6.8852 S.3     
  11 C11           -2.0469     0.5389     6.4669 C.2     
  12 C12           -1.7279    -0.1409     5.3143 C.2     
  13 C13           -2.5948    -1.1461     4.6997 C.2     
  14 O14           -3.3912    -0.8188     3.8386 O.2     
  15 C15           -2.5041    -2.5598     5.1241 C.ar    
  16 C16           -3.4024    -3.5019     4.6196 C.ar    
  17 C17           -3.3126    -4.8188     5.0187 C.ar    
  18 C18           -2.3339    -5.2075     5.9185 C.ar    
  19 C19           -1.4401    -4.2772     6.4227 C.ar    
  20 C20           -1.5162    -2.9586     6.0263 C.ar    
  21 N21           -3.2144     0.3673     7.1826 N.pl3   
  22 Cl22          -2.2274    -6.8671     6.4166 Cl      
  23 O23            0.7093     2.5685    -0.0566 O.3     
  24 C24            0.5234     3.7505    -0.7157 C.ar    
  25 C25           -0.7180     3.7189    -1.3469 C.ar    
  26 O26           -1.3112     2.5163    -1.0856 O.3     
  27 C27            1.3276     4.8723    -0.8323 C.ar    
  28 C28            0.8980     5.9576    -1.5728 C.ar    
  29 C29           -0.3349     5.9272    -2.1977 C.ar    
  30 C30           -1.1426     4.8108    -2.0860 C.ar    
  31 C31            2.6717     4.9095    -0.1517 C.3     
  32 H32           -1.4893     0.0233    -0.1302 H       
  33 H33            0.0540     0.1978    -1.0012 H       
  34 H34            0.3104    -1.1864     1.0558 H       
  35 H35            1.2696     0.3103     1.1470 H       
  36 H36           -0.9984     1.9875     3.4467 H       
  37 H37            0.5172     2.1368     2.5254 H       
  38 H38           -1.2770     3.4421     1.4413 H       
  39 H39           -2.2942     1.9841     1.3439 H       
  40 H40           -0.0518    -1.4282     3.5061 H       
  41 H41            1.2296    -0.1929     3.5198 H       
  42 H42            1.1400     1.5870     5.2690 H       
  43 H43           -4.1664    -3.1998     3.9185 H       
  44 H44           -4.0070    -5.5485     4.6291 H       
  45 H45           -0.6793    -4.5860     7.1243 H       
  46 H46           -0.8185    -2.2342     6.4198 H       
  47 H47           -3.3381     0.8286     8.0268 H       
  48 H48           -3.9113    -0.2148     6.8413 H       
  49 H49            1.5266     6.8312    -1.6632 H       
  50 H50           -0.6676     6.7773    -2.7747 H       
  51 H51           -2.1053     4.7900    -2.5751 H       
  52 H52            3.4321     4.5184    -0.8277 H       
  53 H53            2.9161     5.9379     0.1140 H       
  54 H54            2.6390     4.2990     0.7507 H       
@<TRIPOS>BOND
   1    1    2 1
   2    1   23 1
   3    1    6 1
   4    1   26 1
   5    2    3 1
   6    2   32 1
   7    2   33 1
   8    3    4 1
   9    3   34 1
  10    3   35 1
  11    4    5 1
  12    4    7 1
  13    5    6 1
  14    5   36 1
  15    5   37 1
  16    6   38 1
  17    6   39 1
  18    7    8 1
  19    7   40 1
  20    7   41 1
  21    8    9 2
  22    8   12 1
  23    9   10 1
  24    9   42 1
  25   10   11 1
  26   11   12 2
  27   11   21 1
  28   12   13 1
  29   13   14 2
  30   13   15 1
  31   15   16 ar
  32   15   20 ar
  33   16   17 ar
  34   16   43 1
  35   17   18 ar
  36   17   44 1
  37   18   19 ar
  38   18   22 1
  39   19   20 ar
  40   19   45 1
  41   20   46 1
  42   21   47 1
  43   21   48 1
  44   23   24 1
  45   24   25 ar
  46   24   27 ar
  47   25   26 1
  48   25   30 ar
  49   27   28 ar
  50   27   31 1
  51   28   29 ar
  52   28   49 1
  53   29   30 ar
  54   29   50 1
  55   30   51 1
  56   31   52 1
  57   31   53 1
  58   31   54 1

#	End of record

