#	Name: ASD04910340
#	Creating user name:	WinNT
#	Creation time:	15. 06. 2019 20:55

#	Modifying user name:	WinNT
#	Modification time:	15. 06. 2019 20:55

#	Program:	/corina/corina34_cracker 3.40 0067  02.08.2006

@<TRIPOS>MOLECULE
ASD04910340
  52   55    0    0    0
SMALL
NO_CHARGES


@<TRIPOS>ATOM
   1 C1             1.1683     0.9749    -0.2374 C.2     
   2 C2             0.7827    -0.4502    -0.1855 C.ar    
   3 C3             1.7600    -1.4444    -0.2630 C.ar    
   4 C4             1.3930    -2.7732    -0.2133 C.ar    
   5 C5             0.0599    -3.1218    -0.0876 C.ar    
   6 C6            -0.9137    -2.1417    -0.0107 C.ar    
   7 C7            -0.5601    -0.8090    -0.0528 C.ar    
   8 O8             2.3379     1.2840    -0.3478 O.2     
   9 O9             0.2225     1.9315    -0.1680 O.3     
  10 C10           -0.3335    -4.5756    -0.0345 C.3     
  11 C11           -0.5782    -4.9850     1.4192 C.3     
  12 O12           -1.5284    -4.7737    -0.7928 O.3     
  13 C13           -1.3858    -4.9611    -2.1316 C.ar    
  14 C14           -2.4914    -5.2717    -2.9101 C.ar    
  15 C15           -2.3471    -5.4617    -4.2700 C.ar    
  16 C16           -1.0954    -5.3418    -4.8585 C.ar    
  17 C17            0.0106    -5.0309    -4.0791 C.ar    
  18 C18           -0.1355    -4.8360    -2.7201 C.ar    
  19 N19           -0.9483    -5.5352    -6.2402 N.pl3   
  20 N20           -1.9724    -5.8515    -7.1421 N.2     
  21 C21           -1.4485    -5.9515    -8.3375 C.2     
  22 C22           -0.0756    -5.7026    -8.2361 C.2     
  23 C23            0.2061    -5.4435    -6.9379 C.2     
  24 C24            0.9138    -5.7143    -9.3728 C.3     
  25 F25            0.2491    -6.0151   -10.5665 F       
  26 F26            1.5169    -4.4565    -9.4790 F       
  27 F27            1.8938    -6.6822    -9.1280 F       
  28 C28           -0.8480    -6.4895     1.4868 C.3     
  29 C29           -1.0134    -7.1160     2.8729 C.3     
  30 C30           -2.2308    -6.9385     1.9633 C.3     
  31 C31            0.6740     3.3104    -0.2251 C.3     
  32 H32            2.8009    -1.1737    -0.3619 H       
  33 H33            2.1479    -3.5433    -0.2732 H       
  34 H34           -1.9525    -2.4206     0.0867 H       
  35 H35           -1.3206    -0.0449     0.0121 H       
  36 H36            0.4678    -5.1843    -0.4535 H       
  37 H37            0.3015    -4.7464     2.0169 H       
  38 H38           -1.4401    -4.4434     1.8090 H       
  39 H39           -3.4650    -5.3654    -2.4521 H       
  40 H40           -3.2078    -5.7039    -4.8758 H       
  41 H41            0.9846    -4.9375    -4.5365 H       
  42 H42            0.7241    -4.5897    -2.1144 H       
  43 H43           -1.9839    -6.1862    -9.2456 H       
  44 H44            1.1789    -5.2086    -6.5318 H       
  45 H45           -0.3608    -7.0895     0.7182 H       
  46 H46           -0.6354    -8.1283     3.0160 H       
  47 H47           -0.9300    -6.4563     3.7366 H       
  48 H48           -2.9484    -6.1621     2.2286 H       
  49 H49           -2.6538    -7.8341     1.5081 H       
  50 H50           -0.1857     3.9772    -0.1593 H       
  51 H51            1.3501     3.5060     0.6072 H       
  52 H52            1.1966     3.4829    -1.1660 H       
@<TRIPOS>BOND
   1    1    2 1
   2    1    8 2
   3    1    9 1
   4    2    3 ar
   5    2    7 ar
   6    3    4 ar
   7    3   32 1
   8    4    5 ar
   9    4   33 1
  10    5    6 ar
  11    5   10 1
  12    6    7 ar
  13    6   34 1
  14    7   35 1
  15    9   31 1
  16   10   11 1
  17   10   12 1
  18   10   36 1
  19   11   28 1
  20   11   37 1
  21   11   38 1
  22   12   13 1
  23   13   14 ar
  24   13   18 ar
  25   14   15 ar
  26   14   39 1
  27   15   16 ar
  28   15   40 1
  29   16   17 ar
  30   16   19 1
  31   17   18 ar
  32   17   41 1
  33   18   42 1
  34   19   20 1
  35   19   23 1
  36   20   21 2
  37   21   22 1
  38   21   43 1
  39   22   23 2
  40   22   24 1
  41   23   44 1
  42   24   25 1
  43   24   26 1
  44   24   27 1
  45   28   29 1
  46   28   30 1
  47   28   45 1
  48   29   30 1
  49   29   46 1
  50   29   47 1
  51   30   48 1
  52   30   49 1
  53   31   50 1
  54   31   51 1
  55   31   52 1

#	End of record

