#	Name: ASD05130007
#	Creating user name:	WinNT
#	Creation time:	15. 06. 2019 20:56

#	Modifying user name:	WinNT
#	Modification time:	15. 06. 2019 20:56

#	Program:	/corina/corina34_cracker 3.40 0067  02.08.2006

@<TRIPOS>MOLECULE
ASD05130007
  59   62    0    0    0
SMALL
NO_CHARGES


@<TRIPOS>ATOM
   1 C1            -0.8928     1.8764    -0.2206 C.2     
   2 C2            -0.6889     0.3866    -0.3197 C.3     
   3 O3            -1.9984     2.3238    -0.0009 O.2     
   4 N4             0.1545     2.7114    -0.3706 N.am    
   5 N5             1.8849     7.1939    -0.4891 N.am    
   6 C6             1.6642     8.5232    -0.5015 C.2     
   7 C7             0.2955     9.0445    -0.4646 C.2     
   8 C8            -0.7576     8.1726    -0.4178 C.2     
   9 C9            -0.4994     6.7809    -0.4062 C.ar    
  10 C10           -1.5468     5.8525    -0.3592 C.ar    
  11 N11           -1.2893     4.5629    -0.3497 N.ar    
  12 C12           -0.0494     4.0881    -0.3832 C.ar    
  13 C13            1.0460     4.9368    -0.4300 C.ar    
  14 C14            0.8311     6.3109    -0.4422 C.ar    
  15 O15            2.6063     9.2943    -0.5432 O.2     
  16 C16            3.2580     6.6850    -0.5321 C.3     
  17 C17            3.9043     7.0729    -1.8635 C.3     
  18 C18            4.0623     7.2896     0.6206 C.3     
  19 C19            0.0536    10.5062    -0.4772 C.ar    
  20 C20            0.2099    11.2310    -1.6599 C.ar    
  21 C21           -0.0160    12.5936    -1.6696 C.ar    
  22 C22           -0.3970    13.2437    -0.5087 C.ar    
  23 C23           -0.5549    12.5280     0.6740 C.ar    
  24 C24           -0.3361    11.1600     0.6903 C.ar    
  25 N25           -0.9407    13.1899     1.8473 N.am    
  26 C26           -1.5853    12.5159     2.8203 C.2     
  27 O27           -1.7684    11.3188     2.7119 O.2     
  28 N28           -2.0268    13.1689     3.9135 N.am    
  29 C29           -2.8053    12.4974     4.8628 C.ar    
  30 C30           -3.5717    11.4029     4.4852 C.ar    
  31 C31           -4.3400    10.7415     5.4261 C.ar    
  32 C32           -4.3447    11.1711     6.7431 C.ar    
  33 C33           -3.5824    12.2608     7.1198 C.ar    
  34 C34           -2.8081    12.9209     6.1853 C.ar    
  35 F35           -5.0864     9.6764     5.0605 F       
  36 F36           -0.6159    14.5768    -0.5238 F       
  37 Cl37           0.6888    10.4200    -3.1182 Cl      
  38 H38           -0.8235     0.0694    -1.3539 H       
  39 H39            0.3195     0.1352     0.0091 H       
  40 H40           -1.4152    -0.1225     0.3139 H       
  41 H41            1.0503     2.3528    -0.4698 H       
  42 H42           -1.7723     8.5412    -0.3898 H       
  43 H43           -2.5700     6.1969    -0.3305 H       
  44 H44            2.0492     4.5377    -0.4562 H       
  45 H45            3.2462     5.5992    -0.4366 H       
  46 H46            3.9161     8.1587    -1.9590 H       
  47 H47            4.9259     6.6942    -1.8954 H       
  48 H48            3.3313     6.6422    -2.6846 H       
  49 H49            5.0839     6.9109     0.5886 H       
  50 H50            4.0741     8.3753     0.5251 H       
  51 H51            3.6018     7.0132     1.5691 H       
  52 H52            0.1053    13.1531    -2.5853 H       
  53 H53           -0.4625    10.6024     1.6066 H       
  54 H54           -0.7440    14.1331     1.9591 H       
  55 H55           -1.8050    14.1044     4.0423 H       
  56 H56           -3.5683    11.0688     3.4582 H       
  57 H57           -4.9454    10.6540     7.4767 H       
  58 H58           -3.5886    12.5940     8.1471 H       
  59 H59           -2.2092    13.7692     6.4821 H       
@<TRIPOS>BOND
   1    1    2 1
   2    1    3 2
   3    1    4 am
   4    2   38 1
   5    2   39 1
   6    2   40 1
   7    4   12 1
   8    4   41 1
   9    5    6 am
  10    5   14 1
  11    5   16 1
  12    6    7 1
  13    6   15 2
  14    7    8 2
  15    7   19 1
  16    8    9 1
  17    8   42 1
  18    9   10 ar
  19    9   14 ar
  20   10   11 ar
  21   10   43 1
  22   11   12 ar
  23   12   13 ar
  24   13   14 ar
  25   13   44 1
  26   16   17 1
  27   16   18 1
  28   16   45 1
  29   17   46 1
  30   17   47 1
  31   17   48 1
  32   18   49 1
  33   18   50 1
  34   18   51 1
  35   19   20 ar
  36   19   24 ar
  37   20   21 ar
  38   20   37 1
  39   21   22 ar
  40   21   52 1
  41   22   23 ar
  42   22   36 1
  43   23   24 ar
  44   23   25 1
  45   24   53 1
  46   25   26 am
  47   25   54 1
  48   26   27 2
  49   26   28 am
  50   28   29 1
  51   28   55 1
  52   29   30 ar
  53   29   34 ar
  54   30   31 ar
  55   30   56 1
  56   31   32 ar
  57   31   35 1
  58   32   33 ar
  59   32   57 1
  60   33   34 ar
  61   33   58 1
  62   34   59 1

#	End of record

