#	Name: ASD03331582
#	Creating user name:	WinNT
#	Creation time:	15. 06. 2019 20:39

#	Modifying user name:	WinNT
#	Modification time:	15. 06. 2019 20:39

#	Program:	/corina/corina34_cracker 3.40 0067  02.08.2006

@<TRIPOS>MOLECULE
ASD03331582
  60   63    0    0    0
SMALL
NO_CHARGES


@<TRIPOS>ATOM
   1 C1             0.1650     1.2900     0.8316 C.ar    
   2 C2             0.1375    -0.1737     0.6198 C.2     
   3 N3            -0.9095    -1.0004     0.9088 N.pl3   
   4 C4            -0.5266    -2.2659     0.5911 C.2     
   5 C5             0.7360    -2.1899     0.0881 C.2     
   6 N6             1.1135    -0.8929     0.1174 N.2     
   7 C7             1.5442    -3.3190    -0.4053 C.2     
   8 O8             1.0898    -4.4470    -0.3845 O.2     
   9 N9             2.7869    -3.1018    -0.8797 N.am    
  10 C10            3.5903    -4.2243    -1.3702 C.3     
  11 C11            5.0535    -3.8801    -1.2616 C.2     
  12 C12           -2.2175    -0.6077     1.4423 C.3     
  13 C13           -2.8178    -1.7819     2.2203 C.3     
  14 C14           -3.5657    -2.7079     1.2636 C.3     
  15 O15           -2.6807    -3.2631     0.2980 O.3     
  16 C16           -1.3581    -3.5060     0.7897 C.3     
  17 C17            3.2389    -4.5021    -2.8331 C.3     
  18 C18            3.4077    -3.2198    -3.6506 C.3     
  19 C19            4.1692    -5.5845    -3.3844 C.3     
  20 C20            1.7885    -4.9798    -2.9274 C.3     
  21 C21            1.3842     1.9656     0.8911 C.ar    
  22 C22            1.4040     3.3325     1.0891 C.ar    
  23 C23            0.2137     4.0321     1.2291 C.ar    
  24 C24           -0.9985     3.3640     1.1710 C.ar    
  25 C25           -1.0285     2.0002     0.9668 C.ar    
  26 N26            5.9556    -4.8468    -1.0006 N.am    
  27 F27            0.2372     5.3689     1.4231 F       
  28 F28            2.5834     3.9890     1.1470 F       
  29 O29            5.4192    -2.7331    -1.4091 O.2     
  30 C30            7.4017    -4.9029    -0.7388 C.3     
  31 C31            7.3937    -6.3301    -1.3037 C.3     
  32 C32            5.9260    -6.3090    -0.8459 C.3     
  33 H33            3.1493    -2.2021    -0.8963 H       
  34 H34            3.3802    -5.1105    -0.7714 H       
  35 H35           -2.0974     0.2469     2.1082 H       
  36 H36           -2.8804    -0.3390     0.6199 H       
  37 H37           -2.0189    -2.3372     2.7118 H       
  38 H38           -3.5097    -1.4025     2.9723 H       
  39 H39           -4.0264    -3.5151     1.8332 H       
  40 H40           -4.3442    -2.1417     0.7523 H       
  41 H41           -0.9119    -4.3360     0.2418 H       
  42 H42           -1.4025    -3.7494     1.8512 H       
  43 H43            4.4410    -2.8795    -3.5834 H       
  44 H44            3.1574    -3.4178    -4.6928 H       
  45 H45            2.7450    -2.4487    -3.2578 H       
  46 H46            4.0026    -6.5164    -2.8442 H       
  47 H47            3.9622    -5.7366    -4.4437 H       
  48 H48            5.2057    -5.2716    -3.2580 H       
  49 H49            1.1257    -4.2087    -2.5347 H       
  50 H50            1.5382    -5.1778    -3.9696 H       
  51 H51            1.6683    -5.8933    -2.3451 H       
  52 H52            2.3105     1.4210     0.7828 H       
  53 H53           -1.9221     3.9129     1.2808 H       
  54 H54           -1.9745     1.4810     0.9218 H       
  55 H55            7.9793    -4.2012    -1.3405 H       
  56 H56            7.6531    -4.8569     0.3208 H       
  57 H57            7.5275    -6.3839    -2.3841 H       
  58 H58            8.0210    -7.0319    -0.7541 H       
  59 H59            5.7879    -6.6371     0.1843 H       
  60 H60            5.2473    -6.8034    -1.5409 H       
@<TRIPOS>BOND
   1    1    2 1
   2    1   21 ar
   3    1   25 ar
   4    2    3 1
   5    2    6 2
   6    3    4 1
   7    3   12 1
   8    4    5 2
   9    4   16 1
  10    5    6 1
  11    5    7 1
  12    7    8 2
  13    7    9 am
  14    9   10 1
  15    9   33 1
  16   10   11 1
  17   10   17 1
  18   10   34 1
  19   11   26 am
  20   11   29 2
  21   12   13 1
  22   12   35 1
  23   12   36 1
  24   13   14 1
  25   13   37 1
  26   13   38 1
  27   14   15 1
  28   14   39 1
  29   14   40 1
  30   15   16 1
  31   16   41 1
  32   16   42 1
  33   17   18 1
  34   17   19 1
  35   17   20 1
  36   18   43 1
  37   18   44 1
  38   18   45 1
  39   19   46 1
  40   19   47 1
  41   19   48 1
  42   20   49 1
  43   20   50 1
  44   20   51 1
  45   21   22 ar
  46   21   52 1
  47   22   23 ar
  48   22   28 1
  49   23   24 ar
  50   23   27 1
  51   24   25 ar
  52   24   53 1
  53   25   54 1
  54   26   30 1
  55   26   32 1
  56   30   31 1
  57   30   55 1
  58   30   56 1
  59   31   32 1
  60   31   57 1
  61   31   58 1
  62   32   59 1
  63   32   60 1

#	End of record

