#	Name: ASD00431222
#	Creating user name:	WinNT
#	Creation time:	15. 06. 2019 18:35

#	Modifying user name:	WinNT
#	Modification time:	15. 06. 2019 18:35

#	Program:	/corina/corina34_cracker 3.40 0067  02.08.2006

@<TRIPOS>MOLECULE
ASD00431222
  29   30    0    0    0
SMALL
NO_CHARGES


@<TRIPOS>ATOM
   1 S1            -1.9355     1.4537     1.1906 S.3     
   2 C2            -1.6266    -0.2189     1.0166 C.2     
   3 N3            -1.9466    -0.8464     2.1037 N.2     
   4 C4            -2.4274    -0.1185     3.0949 C.2     
   5 C5            -2.5175     1.1862     2.8317 C.2     
   6 O6            -1.1208    -0.8031    -0.0968 O.3     
   7 C7            -0.8347    -2.1314    -0.0468 C.ar    
   8 C8            -1.8575    -3.0560     0.1063 C.ar    
   9 C9            -1.5667    -4.4053     0.1572 C.ar    
  10 C10           -0.2520    -4.8358     0.0555 C.ar    
  11 C11            0.7707    -3.9113    -0.0976 C.ar    
  12 C12            0.4795    -2.5624    -0.1547 C.ar    
  13 O13            0.0342    -6.1641     0.1064 O.3     
  14 C14           -1.0473    -7.0499     0.4023 C.3     
  15 C15           -1.6641    -7.5556    -0.9033 C.3     
  16 C16           -0.5263    -8.2377     1.2138 C.3     
  17 H17           -2.7240    -0.5448     4.0418 H       
  18 H18           -2.8834     1.9457     3.5068 H       
  19 H19           -2.8810    -2.7208     0.1862 H       
  20 H20           -2.3629    -5.1252     0.2764 H       
  21 H21            1.7943    -4.2466    -0.1768 H       
  22 H22            1.2754    -1.8429    -0.2788 H       
  23 H23           -1.8041    -6.5192     0.9800 H       
  24 H24           -2.4891    -8.2313    -0.6777 H       
  25 H25           -2.0353    -6.7094    -1.4815 H       
  26 H26           -0.9074    -8.0864    -1.4810 H       
  27 H27           -0.0869    -7.8775     2.1440 H       
  28 H28           -1.3513    -8.9134     1.4395 H       
  29 H29            0.2304    -8.7685     0.6361 H       
@<TRIPOS>BOND
   1    1    2 1
   2    1    5 1
   3    2    3 2
   4    2    6 1
   5    3    4 1
   6    4    5 2
   7    4   17 1
   8    5   18 1
   9    6    7 1
  10    7    8 ar
  11    7   12 ar
  12    8    9 ar
  13    8   19 1
  14    9   10 ar
  15    9   20 1
  16   10   11 ar
  17   10   13 1
  18   11   12 ar
  19   11   21 1
  20   12   22 1
  21   13   14 1
  22   14   15 1
  23   14   16 1
  24   14   23 1
  25   15   24 1
  26   15   25 1
  27   15   26 1
  28   16   27 1
  29   16   28 1
  30   16   29 1

#	End of record

