#	Name: ASD01150979
#	Creating user name:	WinNT
#	Creation time:	15. 06. 2019 19:05

#	Modifying user name:	WinNT
#	Modification time:	15. 06. 2019 19:05

#	Program:	/corina/corina34_cracker 3.40 0067  02.08.2006

@<TRIPOS>MOLECULE
ASD01150979
  25   25    0    0    0
SMALL
NO_CHARGES


@<TRIPOS>ATOM
   1 C1            -0.0155     1.2927     0.0091 C.2     
   2 N2             0.0021    -0.0041     0.0020 N.2     
   3 C3            -1.2845    -0.4579     0.0119 C.2     
   4 C4            -2.1017     0.6620     0.0257 C.2     
   5 O5            -1.2851     1.7307     0.0295 O.3     
   6 C6             1.2056     2.1758     0.0022 C.3     
   7 N7            -3.4778     0.6771     0.0389 N.pl3   
   8 C8            -1.7179    -1.8556     0.0081 C.2     
   9 O9            -2.9043    -2.1246     0.0175 O.2     
  10 O10           -0.8018    -2.8459    -0.0060 O.3     
  11 C11           -1.2958    -4.1867    -0.0089 C.3     
  12 C12           -0.1187    -5.1640    -0.0252 C.3     
  13 C13            1.6051     2.4824    -1.4425 C.3     
  14 H14            0.9835     3.1071     0.5232 H       
  15 H15            2.0264     1.6648     0.5055 H       
  16 H16           -3.9720    -0.1575     0.0391 H       
  17 H17           -3.9535     1.5224     0.0479 H       
  18 H18           -1.8954    -4.3550     0.8858 H       
  19 H19           -1.9118    -4.3450    -0.8941 H       
  20 H20            0.4808    -4.9957    -0.9199 H       
  21 H21            0.4973    -5.0056     0.8600 H       
  22 H22           -0.4956    -6.1867    -0.0275 H       
  23 H23            1.8273     1.5511    -1.9635 H       
  24 H24            0.7843     2.9934    -1.9458 H       
  25 H25            2.4883     3.1211    -1.4475 H       
@<TRIPOS>BOND
   1    1    2 2
   2    1    6 1
   3    1    5 1
   4    2    3 1
   5    3    4 2
   6    3    8 1
   7    4    5 1
   8    4    7 1
   9    6   13 1
  10    6   14 1
  11    6   15 1
  12    7   16 1
  13    7   17 1
  14    8    9 2
  15    8   10 1
  16   10   11 1
  17   11   12 1
  18   11   18 1
  19   11   19 1
  20   12   20 1
  21   12   21 1
  22   12   22 1
  23   13   23 1
  24   13   24 1
  25   13   25 1

#	End of record

