#	Name: ASD02198623
#	Creating user name:	WinNT
#	Creation time:	15. 06. 2019 20:19

#	Modifying user name:	WinNT
#	Modification time:	15. 06. 2019 20:19

#	Program:	/corina/corina34_cracker 3.40 0067  02.08.2006

@<TRIPOS>MOLECULE
ASD02198623
  57   61    0    0    0
SMALL
NO_CHARGES


@<TRIPOS>ATOM
   1 C1            -0.0232     1.1581    -0.2681 C.2     
   2 C2             0.2150    -0.1648    -0.4522 C.2     
   3 N3             1.4619    -0.6699    -0.3167 N.pl3   
   4 N4             2.4817     0.0447    -0.0124 N.2     
   5 C5             2.3905     1.3409     0.1933 C.2     
   6 C6             1.0740     1.9865     0.0690 C.2     
   7 C7             1.6484    -2.0418    -0.5184 C.ar    
   8 C8             0.5602    -2.9048    -0.4744 C.ar    
   9 C9             0.7441    -4.2578    -0.6733 C.ar    
  10 C10            2.0176    -4.7573    -0.9175 C.ar    
  11 C11            3.1059    -3.8943    -0.9615 C.ar    
  12 C12            2.9211    -2.5406    -0.7683 C.ar    
  13 C13            3.5875     2.1335     0.5431 C.2     
  14 N14            4.7848     1.6443     0.9759 N.pl3   
  15 N15            5.6388     2.7332     1.1907 N.2     
  16 C16            4.9950     3.8357     0.9032 C.2     
  17 C17            3.7055     3.5046     0.4876 C.2     
  18 C18            5.1179     0.2323     1.1795 C.3     
  19 C19            6.1702    -0.1964     0.1550 C.3     
  20 C20            6.5181    -1.6710     0.3677 C.3     
  21 C21            7.0727    -1.8656     1.7803 C.3     
  22 C22            6.0204    -1.4369     2.8049 C.3     
  23 C23            5.6725     0.0378     2.5921 C.3     
  24 O24            0.9339     3.1871     0.2492 O.2     
  25 N25            2.2039    -6.1272    -1.1184 N.3     
  26 C26            3.6209    -6.4365    -1.3588 C.3     
  27 C27            1.3690    -6.6156    -2.2255 C.3     
  28 C28            1.5587    -8.1278    -2.3719 C.3     
  29 O29            2.9458    -8.4118    -2.5737 O.3     
  30 C30            3.7880    -7.9504    -1.5139 C.3     
  31 H31           -1.0168     1.5666    -0.3796 H       
  32 H32           -0.6017    -0.8229    -0.7099 H       
  33 H33           -0.4295    -2.5166    -0.2842 H       
  34 H34           -0.1016    -4.9285    -0.6388 H       
  35 H35            4.0956    -4.2825    -1.1514 H       
  36 H36            3.7668    -1.8698    -0.8028 H       
  37 H37            5.3968     4.8358     0.9727 H       
  38 H38            2.9362     4.1987     0.1831 H       
  39 H39            4.2209    -0.3743     1.0547 H       
  40 H40            5.7751    -0.0578    -0.8514 H       
  41 H41            7.0672     0.4102     0.2798 H       
  42 H42            5.6211    -2.2776     0.2428 H       
  43 H43            7.2677    -1.9765    -0.3623 H       
  44 H44            7.3205    -2.9162     1.9318 H       
  45 H45            7.9697    -1.2590     1.9052 H       
  46 H46            5.1234    -2.0435     2.6800 H       
  47 H47            6.4155    -1.5755     3.8112 H       
  48 H48            6.5695     0.6443     2.7170 H       
  49 H49            4.9228     0.3432     3.3221 H       
  50 H50            3.9527    -5.9384    -2.2699 H       
  51 H51            4.2175    -6.0890    -0.5154 H       
  52 H52            0.3218    -6.3989    -2.0147 H       
  53 H53            1.6648    -6.1205    -3.1504 H       
  54 H54            1.2128    -8.6273    -1.4670 H       
  55 H55            0.9858    -8.4853    -3.2275 H       
  56 H56            4.8274    -8.1797    -1.7490 H       
  57 H57            3.5069    -8.4448    -0.5841 H       
@<TRIPOS>BOND
   1    1    2 2
   2    1    6 1
   3    1   31 1
   4    2    3 1
   5    2   32 1
   6    3    4 1
   7    3    7 1
   8    4    5 2
   9    5    6 1
  10    5   13 1
  11    6   24 2
  12    7    8 ar
  13    7   12 ar
  14    8    9 ar
  15    8   33 1
  16    9   10 ar
  17    9   34 1
  18   10   11 ar
  19   10   25 1
  20   11   12 ar
  21   11   35 1
  22   12   36 1
  23   13   14 1
  24   13   17 2
  25   14   15 1
  26   14   18 1
  27   15   16 2
  28   16   17 1
  29   16   37 1
  30   17   38 1
  31   18   19 1
  32   18   23 1
  33   18   39 1
  34   19   20 1
  35   19   40 1
  36   19   41 1
  37   20   21 1
  38   20   42 1
  39   20   43 1
  40   21   22 1
  41   21   44 1
  42   21   45 1
  43   22   23 1
  44   22   46 1
  45   22   47 1
  46   23   48 1
  47   23   49 1
  48   25   26 1
  49   25   27 1
  50   26   30 1
  51   26   50 1
  52   26   51 1
  53   27   28 1
  54   27   52 1
  55   27   53 1
  56   28   29 1
  57   28   54 1
  58   28   55 1
  59   29   30 1
  60   30   56 1
  61   30   57 1

#	End of record

