#	Name: ASD08151234
#	Creating user name:	WinNT
#	Creation time:	15. 06. 2019 21:17

#	Modifying user name:	WinNT
#	Modification time:	15. 06. 2019 21:17

#	Program:	/corina/corina34_cracker 3.40 0067  02.08.2006

@<TRIPOS>MOLECULE
ASD08151234
  65   70    0    0    0
SMALL
NO_CHARGES


@<TRIPOS>ATOM
   1 C1            -0.0211     1.3216    -0.1218 C.ar    
   2 C2             0.0236    -0.0574     0.0339 C.ar    
   3 C3             1.2283    -0.7199     0.1119 C.ar    
   4 C4             2.4208     0.0018     0.0332 C.ar    
   5 C5             2.3715     1.4049    -0.1257 C.ar    
   6 C6             1.1422     2.0559    -0.2020 C.ar    
   7 N7             3.6290    -0.6105     0.1060 N.2     
   8 C8             4.7379     0.0610     0.0332 C.2     
   9 N9             4.7851     1.4122    -0.1191 N.am    
  10 C10            3.6446     2.1359    -0.2047 C.2     
  11 C11            6.0250     2.0600    -0.1878 C.ar    
  12 C12            6.6536     2.2308    -1.4140 C.ar    
  13 C13            7.8764     2.8701    -1.4785 C.ar    
  14 C14            8.4746     3.3393    -0.3237 C.ar    
  15 C15            7.8510     3.1708     0.8992 C.ar    
  16 C16            6.6255     2.5380     0.9696 C.ar    
  17 C17            6.0387    -0.6945     0.1225 C.3     
  18 N18            5.8934    -1.8075     1.0639 N.pl3   
  19 C19            7.0063    -2.3179     1.7091 C.ar    
  20 C20            6.8856    -3.3851     2.6151 C.ar    
  21 O21            3.6719     3.3452    -0.3414 O.2     
  22 C22            8.0514    -3.8604     3.2394 C.ar    
  23 N23            9.2163    -3.2884     2.9534 N.ar    
  24 N24            8.2148    -1.8137     1.4820 N.ar    
  25 N25            5.8532    -4.1309     3.0768 N.2     
  26 C26            6.3001    -5.0121     3.9238 C.2     
  27 N27            7.6507    -4.8856     4.0583 N.pl3   
  28 C28            9.2814    -2.2901     2.0977 C.ar    
  29 C29            1.0851     3.5522    -0.3719 C.3     
  30 C30            5.9465     2.3551     2.3025 C.3     
  31 C31            6.4077    -1.2397    -1.2586 C.3     
  32 N32            1.3095     3.8937    -1.7830 N.3     
  33 C33            1.0281     5.3150    -2.0323 C.3     
  34 C34            1.3313     5.6403    -3.4972 C.3     
  35 O35            0.5610     4.7798    -4.3408 O.3     
  36 C36            0.8105     3.3882    -4.1251 C.3     
  37 C37            0.5020     3.0400    -2.6665 C.3     
  38 H38           -0.9758     1.8225    -0.1851 H       
  39 H39           -0.8979    -0.6173     0.0949 H       
  40 H40            1.2505    -1.7928     0.2337 H       
  41 H41            6.1871     1.8639    -2.3163 H       
  42 H42            8.3658     3.0032    -2.4320 H       
  43 H43            9.4310     3.8382    -0.3766 H       
  44 H44            8.3209     3.5381     1.7996 H       
  45 H45            6.8249    -0.0245     0.4706 H       
  46 H46            5.0172    -2.1867     1.2351 H       
  47 H47            5.6907    -5.7363     4.4439 H       
  48 H48            8.2234    -5.4221     4.6285 H       
  49 H49           10.2439    -1.8475     1.8876 H       
  50 H50            0.1056     3.9160    -0.0614 H       
  51 H51            1.8566     4.0173     0.2416 H       
  52 H52            5.3091     3.2154     2.5066 H       
  53 H53            5.3393     1.4502     2.2798 H       
  54 H54            6.7001     2.2675     3.0852 H       
  55 H55            5.6695    -1.9803    -1.5660 H       
  56 H56            6.4241    -0.4222    -1.9794 H       
  57 H57            7.3925    -1.7048    -1.2145 H       
  58 H58           -0.0219     5.5202    -1.8236 H       
  59 H59            1.6551     5.9290    -1.3857 H       
  60 H60            1.0702     6.6788    -3.7010 H       
  61 H61            2.3926     5.4863    -3.6921 H       
  62 H62            0.1727     2.7979    -4.7829 H       
  63 H63            1.8567     3.1687    -4.3382 H       
  64 H64            0.7450     1.9934    -2.4829 H       
  65 H65           -0.5564     3.2089    -2.4680 H       
@<TRIPOS>BOND
   1    1    2 ar
   2    1    6 ar
   3    1   38 1
   4    2    3 ar
   5    2   39 1
   6    3    4 ar
   7    3   40 1
   8    4    5 ar
   9    4    7 1
  10    5    6 ar
  11    5   10 1
  12    6   29 1
  13    7    8 2
  14    8    9 1
  15    8   17 1
  16    9   10 am
  17    9   11 1
  18   10   21 2
  19   11   12 ar
  20   11   16 ar
  21   12   13 ar
  22   12   41 1
  23   13   14 ar
  24   13   42 1
  25   14   15 ar
  26   14   43 1
  27   15   16 ar
  28   15   44 1
  29   16   30 1
  30   17   18 1
  31   17   31 1
  32   17   45 1
  33   18   19 1
  34   18   46 1
  35   19   20 ar
  36   19   24 ar
  37   20   22 ar
  38   20   25 1
  39   22   23 ar
  40   22   27 1
  41   23   28 ar
  42   24   28 ar
  43   25   26 2
  44   26   27 1
  45   26   47 1
  46   27   48 1
  47   28   49 1
  48   29   32 1
  49   29   50 1
  50   29   51 1
  51   30   52 1
  52   30   53 1
  53   30   54 1
  54   31   55 1
  55   31   56 1
  56   31   57 1
  57   32   33 1
  58   32   37 1
  59   33   34 1
  60   33   58 1
  61   33   59 1
  62   34   35 1
  63   34   60 1
  64   34   61 1
  65   35   36 1
  66   36   37 1
  67   36   62 1
  68   36   63 1
  69   37   64 1
  70   37   65 1

#	End of record

