#	Name: ASD02030146
#	Creating user name:	WinNT
#	Creation time:	15. 06. 2019 20:14

#	Modifying user name:	WinNT
#	Modification time:	15. 06. 2019 20:14

#	Program:	/corina/corina34_cracker 3.40 0067  02.08.2006

@<TRIPOS>MOLECULE
ASD02030146
  61   65    0    0    0
SMALL
NO_CHARGES


@<TRIPOS>ATOM
   1 N1            -0.1409     1.4477    -0.8333 N.am    
   2 C2            -0.1577    -0.0191    -0.7438 C.3     
   3 C3            -0.9326    -0.4244     0.5161 C.3     
   4 N4            -2.2106     0.3010     0.5351 N.am    
   5 C5            -2.1939     1.7678     0.4456 C.3     
   6 C6            -1.4186     2.1734    -0.8087 C.3     
   7 C7             1.0256     2.1157    -0.9305 C.2     
   8 C8             2.3066     1.3880    -0.8078 C.2     
   9 N9             3.5032     1.9320    -0.7521 N.2     
  10 N10            2.4537     0.0528    -0.7275 N.2     
  11 C11            3.7356    -0.1920    -0.6298 C.2     
  12 N12            4.3794     0.9931    -0.6465 N.pl3   
  13 O13            1.0244     3.3166    -1.1190 O.2     
  14 C14           -3.3771    -0.3671     0.6323 C.2     
  15 C15           -3.3856    -1.8458     0.6207 C.ar    
  16 O16           -4.4223     0.2460     0.7295 O.2     
  17 C17           -1.1546     3.6803    -0.7842 C.3     
  18 C18           -2.2306     1.8110    -2.0538 C.3     
  19 C19            5.7668     1.1730    -0.5634 C.ar    
  20 C20            6.3053     2.4524    -0.5918 C.ar    
  21 C21            7.6730     2.6264    -0.5098 C.ar    
  22 C22            8.5058     1.5280    -0.4000 C.ar    
  23 C23            7.9725     0.2525    -0.3715 C.ar    
  24 C24            6.6052     0.0723    -0.4469 C.ar    
  25 N25           -2.2983    -2.5085     1.0288 N.ar    
  26 C26           -2.2347    -3.8207     1.0454 C.ar    
  27 C27           -3.3419    -4.5897     0.6211 C.ar    
  28 C28           -4.5120    -3.9183     0.1818 C.ar    
  29 C29           -4.5197    -2.5116     0.1935 C.ar    
  30 O30           -1.1053    -4.4378     1.4697 O.3     
  31 C31           -0.0245    -3.5997     1.8838 C.3     
  32 C32           -3.3122    -5.9897     0.6234 C.ar    
  33 C33           -4.4073    -6.6883     0.2037 C.ar    
  34 C34           -5.5596    -6.0272    -0.2289 C.ar    
  35 C35           -5.6210    -4.6639    -0.2429 C.ar    
  36 F36           -4.3763    -8.0389     0.2062 F       
  37 F37           -6.6272    -6.7468    -0.6382 F       
  38 H38           -0.6484    -0.4337    -1.6244 H       
  39 H39            0.8641    -0.3935    -0.6811 H       
  40 H40           -1.1214    -1.4978     0.5000 H       
  41 H41           -0.3520    -0.1659     1.4017 H       
  42 H42           -3.2156     2.1421     0.3829 H       
  43 H43           -1.7031     2.1824     1.3262 H       
  44 H44            4.1945    -1.1662    -0.5475 H       
  45 H45           -0.3471     3.8964    -0.0847 H       
  46 H46           -0.8707     4.0156    -1.7817 H       
  47 H47           -2.0580     4.2024    -0.4688 H       
  48 H48           -3.1845     2.3378    -2.0315 H       
  49 H49           -1.6761     2.1010    -2.9463 H       
  50 H50           -2.4095     0.7359    -2.0706 H       
  51 H51            5.6555     3.3107    -0.6782 H       
  52 H52            8.0925     3.6214    -0.5318 H       
  53 H53            9.5750     1.6666    -0.3367 H       
  54 H54            8.6255    -0.6035    -0.2857 H       
  55 H55            6.1892    -0.9241    -0.4242 H       
  56 H56           -5.3906    -1.9627    -0.1330 H       
  57 H57            0.2829    -2.9657     1.0522 H       
  58 H58           -0.3476    -2.9752     2.7167 H       
  59 H59            0.8155    -4.2189     2.1985 H       
  60 H60           -2.4279    -6.5137     0.9548 H       
  61 H61           -6.5167    -4.1631    -0.5793 H       
@<TRIPOS>BOND
   1    1    2 1
   2    1    7 am
   3    1    6 1
   4    2    3 1
   5    2   38 1
   6    2   39 1
   7    3    4 1
   8    3   40 1
   9    3   41 1
  10    4    5 1
  11    4   14 am
  12    5    6 1
  13    5   42 1
  14    5   43 1
  15    6   17 1
  16    6   18 1
  17    7    8 1
  18    7   13 2
  19    8    9 2
  20    8   10 1
  21    9   12 1
  22   10   11 2
  23   11   12 1
  24   11   44 1
  25   12   19 1
  26   14   15 1
  27   14   16 2
  28   15   25 ar
  29   15   29 ar
  30   17   45 1
  31   17   46 1
  32   17   47 1
  33   18   48 1
  34   18   49 1
  35   18   50 1
  36   19   20 ar
  37   19   24 ar
  38   20   21 ar
  39   20   51 1
  40   21   22 ar
  41   21   52 1
  42   22   23 ar
  43   22   53 1
  44   23   24 ar
  45   23   54 1
  46   24   55 1
  47   25   26 ar
  48   26   27 ar
  49   26   30 1
  50   27   28 ar
  51   27   32 ar
  52   28   29 ar
  53   28   35 ar
  54   29   56 1
  55   30   31 1
  56   31   57 1
  57   31   58 1
  58   31   59 1
  59   32   33 ar
  60   32   60 1
  61   33   34 ar
  62   33   36 1
  63   34   35 ar
  64   34   37 1
  65   35   61 1

#	End of record

