#	Name: ASD05380001
#	Creating user name:	WinNT
#	Creation time:	15. 06. 2019 20:59

#	Modifying user name:	WinNT
#	Modification time:	15. 06. 2019 20:59

#	Program:	/corina/corina34_cracker 3.40 0067  02.08.2006

@<TRIPOS>MOLECULE
ASD05380001
  40   43    0    0    0
SMALL
NO_CHARGES


@<TRIPOS>ATOM
   1 C1            -0.0174     1.3975    -0.0009 C.ar    
   2 C2            -0.0045     0.0044    -0.1502 C.ar    
   3 O3            -1.1649    -0.6832    -0.1337 O.3     
   4 C4            -2.3515    -0.0808     0.0222 C.2     
   5 C5            -2.4737     1.2677     0.1748 C.2     
   6 C6            -1.3199     2.0750     0.1668 C.2     
   7 C7             1.1764     2.1172    -0.0176 C.ar    
   8 C8             2.3747     1.4547    -0.1817 C.ar    
   9 C9             2.4002     0.0785    -0.3302 C.ar    
  10 C10            1.2193    -0.6552    -0.3156 C.ar    
  11 C11            1.2557    -2.1293    -0.4755 C.ar    
  12 C12            1.9732    -2.7016    -1.5243 C.ar    
  13 C13            2.0040    -4.0738    -1.6679 C.ar    
  14 C14            1.3241    -4.8809    -0.7736 C.ar    
  15 C15            0.6099    -4.3184     0.2690 C.ar    
  16 C16            0.5773    -2.9476     0.4260 C.ar    
  17 N17           -3.4861    -0.8505     0.0280 N.pl3   
  18 C18           -4.7593    -0.3269    -0.4917 C.3     
  19 C19           -5.3317    -1.3452    -1.4843 C.3     
  20 O20           -5.3807    -2.6319    -0.8631 O.3     
  21 C21           -4.1018    -3.1507    -0.4900 C.3     
  22 C22           -3.4651    -2.2268     0.5484 C.3     
  23 O23           -1.3922     3.2860     0.3012 O.2     
  24 H24           -3.4491     1.7148     0.2975 H       
  25 H25            1.1628     3.1910     0.0974 H       
  26 H26            3.2991     2.0130    -0.1949 H       
  27 H27            3.3449    -0.4292    -0.4581 H       
  28 H28            2.5039    -2.0724    -2.2236 H       
  29 H29            2.5597    -4.5184    -2.4803 H       
  30 H30            1.3506    -5.9543    -0.8900 H       
  31 H31            0.0803    -4.9532     0.9639 H       
  32 H32            0.0197    -2.5094     1.2406 H       
  33 H33           -5.4598    -0.1823     0.3308 H       
  34 H34           -4.5863     0.6225    -0.9984 H       
  35 H35           -6.3376    -1.0434    -1.7762 H       
  36 H36           -4.6940    -1.3912    -2.3671 H       
  37 H37           -4.2228    -4.1478    -0.0666 H       
  38 H38           -3.4597    -3.2032    -1.3692 H       
  39 H39           -2.4361    -2.5356     0.7326 H       
  40 H40           -4.0341    -2.2710     1.4770 H       
@<TRIPOS>BOND
   1    1    2 ar
   2    1    7 ar
   3    1    6 1
   4    2    3 1
   5    2   10 ar
   6    3    4 1
   7    4    5 2
   8    4   17 1
   9    5    6 1
  10    5   24 1
  11    6   23 2
  12    7    8 ar
  13    7   25 1
  14    8    9 ar
  15    8   26 1
  16    9   10 ar
  17    9   27 1
  18   10   11 1
  19   11   12 ar
  20   11   16 ar
  21   12   13 ar
  22   12   28 1
  23   13   14 ar
  24   13   29 1
  25   14   15 ar
  26   14   30 1
  27   15   16 ar
  28   15   31 1
  29   16   32 1
  30   17   18 1
  31   17   22 1
  32   18   19 1
  33   18   33 1
  34   18   34 1
  35   19   20 1
  36   19   35 1
  37   19   36 1
  38   20   21 1
  39   21   22 1
  40   21   37 1
  41   21   38 1
  42   22   39 1
  43   22   40 1

#	End of record

