#	Name: ASD01028320
#	Creating user name:	WinNT
#	Creation time:	15. 06. 2019 18:56

#	Modifying user name:	WinNT
#	Modification time:	15. 06. 2019 18:56

#	Program:	/corina/corina34_cracker 3.40 0067  02.08.2006

@<TRIPOS>MOLECULE
ASD01028320
  53   57    0    0    0
SMALL
NO_CHARGES


@<TRIPOS>ATOM
   1 C1            -1.1929     1.8958     0.1699 C.ar    
   2 C2            -1.4361     0.5008     0.1789 C.ar    
   3 C3             0.1415     2.3561     0.1048 C.ar    
   4 C4             1.1517     1.4121     0.0526 C.ar    
   5 C5             0.8328     0.0603     0.0653 C.ar    
   6 N6            -0.4101    -0.3567     0.1264 N.ar    
   7 O7             0.4233     3.6823     0.0934 O.3     
   8 C8             1.8020     4.0520     0.0259 C.3     
   9 C9             1.9196     5.5544     0.0229 C.2     
  10 N10            2.0356     6.3471     1.1105 N.pl3   
  11 C11            2.1130     7.6345     0.6351 C.2     
  12 N12            2.0417     7.5604    -0.6839 N.2     
  13 N13            1.9333     6.3266    -1.0350 N.2     
  14 N14            2.0848     6.1040     2.4847 N.2     
  15 C15            2.2050     7.1006     3.3342 C.2     
  16 C16            2.2868     8.4334     2.8769 C.2     
  17 C17            2.2417     8.7009     1.5453 C.2     
  18 C18            2.2548     6.8209     4.7896 C.ar    
  19 C19            2.1744     5.5078     5.2514 C.ar    
  20 C20            2.2213     5.2502     6.6047 C.ar    
  21 C21            2.3484     6.2983     7.5088 C.ar    
  22 C22            2.4283     7.6083     7.0508 C.ar    
  23 C23            2.3880     7.8703     5.6981 C.ar    
  24 C24           -2.7605     0.0382     0.2436 C.ar    
  25 C25           -3.7954     0.9436     0.2970 C.ar    
  26 C26           -3.5438     2.3191     0.2875 C.ar    
  27 O27           -5.0764     0.4960     0.3592 O.3     
  28 C28           -2.2698     2.7931     0.2311 C.ar    
  29 C29           -6.1071     1.4843     0.4125 C.3     
  30 N30            2.3953     6.0347     8.8805 N.am    
  31 C31            3.0154     4.9269     9.3330 C.2     
  32 C32            3.1579     4.6954    10.8153 C.3     
  33 O33            3.4587     4.1163     8.5472 O.2     
  34 H34            2.1841     1.7252     0.0017 H       
  35 H35            1.6295    -0.6677     0.0241 H       
  36 H36            2.3292     3.6480     0.8901 H       
  37 H37            2.2413     3.6514    -0.8877 H       
  38 H38            2.3854     9.2418     3.5863 H       
  39 H39            2.3038     9.7188     1.1897 H       
  40 H40            2.0749     4.6931     4.5494 H       
  41 H41            2.1590     4.2332     6.9629 H       
  42 H42            2.5263     8.4211     7.7551 H       
  43 H43            2.4502     8.8882     5.3427 H       
  44 H44           -2.9656    -1.0221     0.2511 H       
  45 H45           -4.3701     3.0132     0.3300 H       
  46 H46           -2.0882     3.8577     0.2244 H       
  47 H47           -7.0792     0.9934     0.4593 H       
  48 H48           -5.9703     2.1045     1.2984 H       
  49 H49           -6.0581     2.1090    -0.4794 H       
  50 H50            1.9816     6.6490     9.5069 H       
  51 H51            2.1696     4.6493    11.2725 H       
  52 H52            3.6822     3.7554    10.9874 H       
  53 H53            3.7252     5.5141    11.2580 H       
@<TRIPOS>BOND
   1    1    2 ar
   2    1    3 ar
   3    1   28 ar
   4    2   24 ar
   5    2    6 ar
   6    3    4 ar
   7    3    7 1
   8    4    5 ar
   9    4   34 1
  10    5    6 ar
  11    5   35 1
  12    7    8 1
  13    8    9 1
  14    8   36 1
  15    8   37 1
  16    9   10 1
  17    9   13 2
  18   10   11 1
  19   10   14 1
  20   11   12 2
  21   11   17 1
  22   12   13 1
  23   14   15 2
  24   15   16 1
  25   15   18 1
  26   16   17 2
  27   16   38 1
  28   17   39 1
  29   18   19 ar
  30   18   23 ar
  31   19   20 ar
  32   19   40 1
  33   20   21 ar
  34   20   41 1
  35   21   22 ar
  36   21   30 1
  37   22   23 ar
  38   22   42 1
  39   23   43 1
  40   24   25 ar
  41   24   44 1
  42   25   26 ar
  43   25   27 1
  44   26   28 ar
  45   26   45 1
  46   27   29 1
  47   28   46 1
  48   29   47 1
  49   29   48 1
  50   29   49 1
  51   30   31 am
  52   30   50 1
  53   31   32 1
  54   31   33 2
  55   32   51 1
  56   32   52 1
  57   32   53 1

#	End of record

