#	Name: ASD05143041
#	Creating user name:	WinNT
#	Creation time:	15. 06. 2019 20:57

#	Modifying user name:	WinNT
#	Modification time:	15. 06. 2019 20:57

#	Program:	/corina/corina34_cracker 3.40 0067  02.08.2006

@<TRIPOS>MOLECULE
ASD05143041
 155  159    0    0    0
SMALL
NO_CHARGES


@<TRIPOS>ATOM
   1 C1            -2.0952     5.4367     7.5584 C.2     
   2 C2            -1.6084     4.7035     8.7818 C.3     
   3 N3            -1.2083     5.9690     6.6944 N.am    
   4 O4            -3.2850     5.5434     7.3488 O.2     
   5 C5            -1.6815     6.6818     5.5052 C.3     
   6 C6            -2.5162     5.7343     4.6412 C.3     
   7 C7            -2.5285     7.8549     5.9265 C.2     
   8 C8            -1.6251     4.6093     4.1110 C.3     
   9 C9            -2.4598     3.6618     3.2470 C.3     
  10 N10           -1.6066     2.5845     2.7393 N.pl3   
  11 C11           -2.1403     1.6065     1.9338 C.2     
  12 N12           -1.3396     0.5956     1.4573 N.pl3   
  13 N13           -3.4055     1.6377     1.6219 N.2     
  14 O14           -3.0199     7.8810     7.0350 O.2     
  15 N15           -2.7400     8.8750     5.0714 N.am    
  16 C16           -3.5633    10.0154     5.4810 C.3     
  17 C17           -2.6599    11.2077     5.8019 C.3     
  18 C18           -1.5027    10.7471     6.6903 C.3     
  19 C19           -0.3628    10.2735     5.8260 C.2     
  20 O20           -0.5668     9.5391     4.8827 O.2     
  21 N21            0.9048    10.6871     6.1244 N.am    
  22 C22            1.9669    10.1716     5.2306 C.3     
  23 C23            2.1158    11.1268     4.0448 C.3     
  24 C24            2.7776    10.3910     2.8779 C.3     
  25 C25            3.7353    11.3392     2.1536 C.3     
  26 N26            3.6819    11.0555     0.7053 N.am    
  27 C27            5.1384    11.1230     2.6591 C.2     
  28 N28            5.5276    11.6766     3.8247 N.am    
  29 O29            5.9175    10.4508     2.0170 O.2     
  30 C30            2.8549    11.8405    -0.0379 C.2     
  31 O31            2.2118    12.7247     0.4870 O.2     
  32 C32            2.7488    11.5973    -1.5214 C.3     
  33 N33            1.5336    12.2780    -2.0247 N.am    
  34 C34            3.9837    12.1641    -2.2246 C.3     
  35 C35            0.4800    11.4573    -2.3128 C.2     
  36 O36            0.5716    10.2575    -2.1603 O.2     
  37 C37           -0.7983    12.0710    -2.8231 C.3     
  38 N38           -1.9248    11.1796    -2.4818 N.am    
  39 C39           -1.0087    13.4371    -2.1671 C.3     
  40 C40           -3.0287    11.7703    -1.9469 C.2     
  41 O41           -3.0578    12.9691    -1.7650 O.2     
  42 C42           -4.2141    10.9133    -1.5847 C.3     
  43 C43            3.9337    11.8121    -3.6890 C.2     
  44 C44            3.2343    12.5546    -4.7404 C.ar    
  45 C45            3.4706    11.8516    -5.9357 C.ar    
  46 N46            4.2559    10.7657    -5.6198 N.pl3   
  47 C47            4.5265    10.7618    -4.2785 C.2     
  48 C48            2.4576    13.7149    -4.7563 C.ar    
  49 C49            1.9304    14.1620    -5.9348 C.ar    
  50 C50            2.1603    13.4716    -7.1171 C.ar    
  51 C51            2.9242    12.3253    -7.1242 C.ar    
  52 N52           -4.7982    11.4204    -0.3221 N.am    
  53 C53           -3.7609     9.4643    -1.3950 C.3     
  54 C54           -4.9594     8.5965    -1.1090 C.ar    
  55 C55           -5.9895     8.5193    -2.0289 C.ar    
  56 C56           -7.0894     7.7261    -1.7721 C.ar    
  57 C57           -7.1610     7.0024    -0.5836 C.ar    
  58 C58           -6.1204     7.0839     0.3395 C.ar    
  59 C59           -5.0226     7.8758     0.0699 C.ar    
  60 C60           -4.5030    10.3844     4.3619 C.2     
  61 N61           -3.9874    10.8665     3.1978 N.am    
  62 O62           -5.7012    10.2533     4.4963 O.2     
  63 C63           -4.9565    11.2111     2.1384 C.3     
  64 C64           -5.1779    12.7249     2.1188 C.3     
  65 C65           -4.4035    10.7645     0.8096 C.2     
  66 C66           -5.8395    13.1605     3.4279 C.3     
  67 N67           -6.0521    14.6139     3.4091 N.3     
  68 O68           -3.6223     9.8390     0.7458 O.2     
  69 C69           -1.0167    13.2764    -0.6455 C.3     
  70 C70           -1.3737    14.6136     0.0067 C.3     
  71 N71           -1.3813    14.4597     1.4636 N.pl3   
  72 C72           -1.6774    15.5354     2.2669 C.2     
  73 N73           -1.9663    16.7556     1.7030 N.pl3   
  74 N74           -1.6842    15.3985     3.5631 N.2     
  75 C75           -8.3413     6.1483    -0.3017 C.ar    
  76 C76           -8.4128     5.4246     0.8868 C.ar    
  77 C77           -9.5129     4.6317     1.1438 C.ar    
  78 C78          -10.5430     4.5545     0.2239 C.ar    
  79 C79          -10.4770     5.2704    -0.9578 C.ar    
  80 C80           -9.3846     6.0716    -1.2220 C.ar    
  81 H81           -1.5014     5.4063     9.6080 H       
  82 H82           -2.3280     3.9310     9.0527 H       
  83 H83           -0.6436     4.2429     8.5693 H       
  84 H84           -0.2567     5.8803     6.8600 H       
  85 H85           -0.8264     7.0386     4.9312 H       
  86 H86           -3.3203     5.3086     5.2415 H       
  87 H87           -2.9416     6.2865     3.8032 H       
  88 H88           -0.8210     5.0350     3.5107 H       
  89 H89           -1.1997     4.0571     4.9490 H       
  90 H90           -3.2639     3.2361     3.8472 H       
  91 H91           -2.8852     4.2139     2.4090 H       
  92 H92           -0.6650     2.5613     2.9714 H       
  93 H93           -0.3980     0.5724     1.6894 H       
  94 H94           -1.7162    -0.0944     0.8890 H       
  95 H95           -3.7820     0.9477     1.0536 H       
  96 H96           -2.3470     8.8541     4.1849 H       
  97 H97           -4.1400     9.7479     6.3664 H       
  98 H98           -2.2634    11.6228     4.8752 H       
  99 H99           -3.2372    11.9708     6.3239 H       
 100 H100          -1.1674    11.5786     7.3103 H       
 101 H101          -1.8381     9.9300     7.3290 H       
 102 H102           1.0956    11.2777     6.8698 H       
 103 H103           2.9089    10.1163     5.7762 H       
 104 H104           1.6919     9.1805     4.8697 H       
 105 H105           1.1319    11.4825     3.7389 H       
 106 H106           2.7344    11.9753     4.3371 H       
 107 H107           3.3333     9.5335     3.2575 H       
 108 H108           2.0110    10.0482     2.1830 H       
 109 H109           3.4345    12.3710     2.3351 H       
 110 H110           4.2086    10.3464     0.3046 H       
 111 H111           4.9045    12.2142     4.3382 H       
 112 H112           6.4307    11.5375     4.1500 H       
 113 H113           2.6744    10.5268    -1.7125 H       
 114 H114           1.4889    13.2398    -2.1420 H       
 115 H115           4.0006    13.2481    -2.1119 H       
 116 H116           4.8829    11.7385    -1.7791 H       
 117 H117          -0.7405    12.1885    -3.9052 H       
 118 H118          -1.8806    10.2221    -2.6307 H       
 119 H119          -0.2001    14.1079    -2.4573 H       
 120 H120          -1.9615    13.8540    -2.4934 H       
 121 H121          -4.9589    10.9649    -2.3788 H       
 122 H122           4.5733    10.1042    -6.2543 H       
 123 H123           5.1223    10.0193    -3.7684 H       
 124 H124           2.2740    14.2567    -3.8403 H       
 125 H125           1.3298    15.0595    -5.9466 H       
 126 H126           1.7365    13.8373    -8.0407 H       
 127 H127           3.0975    11.7955    -8.0493 H       
 128 H128          -5.4176    12.1665    -0.2999 H       
 129 H129          -3.2684     9.1158    -2.3028 H       
 130 H130          -3.0638     9.4081    -0.5590 H       
 131 H131          -5.9331     9.0809    -2.9497 H       
 132 H132          -7.8933     7.6668    -2.4909 H       
 133 H133          -6.1708     6.5250     1.2623 H       
 134 H134          -4.2155     7.9397     0.7847 H       
 135 H135          -3.0323    10.9782     3.0710 H       
 136 H136          -5.9030    10.7060     2.3307 H       
 137 H137          -4.2187    13.2311     2.0105 H       
 138 H138          -5.8237    12.9868     1.2807 H       
 139 H139          -6.7987    12.6543     3.5362 H       
 140 H140          -5.1937    12.8985     4.2660 H       
 141 H141          -6.5947    14.8896     2.6043 H       
 142 H142          -6.4883    14.9265     4.2636 H       
 143 H143          -1.7550    12.5259    -0.3633 H       
 144 H144          -0.0296    12.9598    -0.3084 H       
 145 H145          -0.6353    15.3641    -0.2755 H       
 146 H146          -2.3607    14.9302    -0.3304 H       
 147 H147          -1.1775    13.5988     1.8614 H       
 148 H148          -1.9613    16.8575     0.7384 H       
 149 H149          -2.1752    17.5145     2.2698 H       
 150 H150          -1.8931    16.1574     4.1298 H       
 151 H151          -7.6088     5.4836     1.6054 H       
 152 H152          -9.5694     4.0704     2.0647 H       
 153 H153         -11.4019     3.9326     0.4289 H       
 154 H154         -11.2839     5.2062    -1.6727 H       
 155 H155          -9.3342     6.6304    -2.1448 H       
@<TRIPOS>BOND
   1    1    2 1
   2    1    3 am
   3    1    4 2
   4    2   81 1
   5    2   82 1
   6    2   83 1
   7    3    5 1
   8    3   84 1
   9    5    6 1
  10    5    7 1
  11    5   85 1
  12    6    8 1
  13    6   86 1
  14    6   87 1
  15    7   14 2
  16    7   15 am
  17    8    9 1
  18    8   88 1
  19    8   89 1
  20    9   10 1
  21    9   90 1
  22    9   91 1
  23   10   11 1
  24   10   92 1
  25   11   12 1
  26   11   13 2
  27   12   93 1
  28   12   94 1
  29   13   95 1
  30   15   16 1
  31   15   96 1
  32   16   17 1
  33   16   60 1
  34   16   97 1
  35   17   18 1
  36   17   98 1
  37   17   99 1
  38   18   19 1
  39   18  100 1
  40   18  101 1
  41   19   20 2
  42   19   21 am
  43   21   22 1
  44   21  102 1
  45   22   23 1
  46   22  103 1
  47   22  104 1
  48   23   24 1
  49   23  105 1
  50   23  106 1
  51   24   25 1
  52   24  107 1
  53   24  108 1
  54   25   26 1
  55   25   27 1
  56   25  109 1
  57   26   30 am
  58   26  110 1
  59   27   28 am
  60   27   29 2
  61   28  111 1
  62   28  112 1
  63   30   31 2
  64   30   32 1
  65   32   33 1
  66   32   34 1
  67   32  113 1
  68   33   35 am
  69   33  114 1
  70   34   43 1
  71   34  115 1
  72   34  116 1
  73   35   36 2
  74   35   37 1
  75   37   38 1
  76   37   39 1
  77   37  117 1
  78   38   40 am
  79   38  118 1
  80   39   69 1
  81   39  119 1
  82   39  120 1
  83   40   41 2
  84   40   42 1
  85   42   52 1
  86   42   53 1
  87   42  121 1
  88   43   44 1
  89   43   47 2
  90   44   45 ar
  91   44   48 ar
  92   45   46 1
  93   45   51 ar
  94   46   47 1
  95   46  122 1
  96   47  123 1
  97   48   49 ar
  98   48  124 1
  99   49   50 ar
 100   49  125 1
 101   50   51 ar
 102   50  126 1
 103   51  127 1
 104   52   65 am
 105   52  128 1
 106   53   54 1
 107   53  129 1
 108   53  130 1
 109   54   55 ar
 110   54   59 ar
 111   55   56 ar
 112   55  131 1
 113   56   57 ar
 114   56  132 1
 115   57   58 ar
 116   57   75 1
 117   58   59 ar
 118   58  133 1
 119   59  134 1
 120   60   61 am
 121   60   62 2
 122   61   63 1
 123   61  135 1
 124   63   64 1
 125   63   65 1
 126   63  136 1
 127   64   66 1
 128   64  137 1
 129   64  138 1
 130   65   68 2
 131   66   67 1
 132   66  139 1
 133   66  140 1
 134   67  141 1
 135   67  142 1
 136   69   70 1
 137   69  143 1
 138   69  144 1
 139   70   71 1
 140   70  145 1
 141   70  146 1
 142   71   72 1
 143   71  147 1
 144   72   73 1
 145   72   74 2
 146   73  148 1
 147   73  149 1
 148   74  150 1
 149   75   76 ar
 150   75   80 ar
 151   76   77 ar
 152   76  151 1
 153   77   78 ar
 154   77  152 1
 155   78   79 ar
 156   78  153 1
 157   79   80 ar
 158   79  154 1
 159   80  155 1

#	End of record

