#	Name: ASD01180378
#	Creating user name:	WinNT
#	Creation time:	15. 06. 2019 19:07

#	Modifying user name:	WinNT
#	Modification time:	15. 06. 2019 19:07

#	Program:	/corina/corina34_cracker 3.40 0067  02.08.2006

@<TRIPOS>MOLECULE
ASD01180378
  45   46    0    0    0
SMALL
NO_CHARGES


@<TRIPOS>ATOM
   1 C1            -0.0187     1.5258     0.0104 C.3     
   2 C2             0.0021    -0.0041     0.0020 C.3     
   3 C3             0.6310    -0.5127     1.3007 C.3     
   4 C4            -0.2589    -0.1265     2.4838 C.3     
   5 N5             1.3595     2.0342     0.0000 N.3     
   6 C6            -2.0863     2.9429    -3.4531 C.ar    
   7 C7            -2.7376     2.8911    -2.2222 C.ar    
   8 C8            -2.0655     2.4327    -1.1076 C.ar    
   9 C9            -0.7475     2.0250    -1.2105 C.ar    
  10 C10           -0.0963     2.0743    -2.4295 C.ar    
  11 C11           -0.7589     2.5311    -3.5510 C.ar    
  12 C12           -2.8057     3.4292    -4.6564 C.ar    
  13 C13           -2.2314     4.4060    -5.4673 C.ar    
  14 C14           -2.9050     4.8546    -6.5853 C.ar    
  15 C15           -4.1481     4.3368    -6.9011 C.ar    
  16 C16           -4.7231     3.3673    -6.0994 C.ar    
  17 C17           -4.0554     2.9066    -4.9827 C.ar    
  18 C18           -4.8790     4.8310    -8.1228 C.3     
  19 F19           -4.5296     4.0440    -9.2254 F       
  20 F20           -6.2586     4.7455    -7.9073 F       
  21 F21           -4.5272     6.1623    -8.3699 F       
  22 C22           -4.1731     3.3354    -2.1085 C.3     
  23 C23            0.7659    -2.0356     1.2398 C.3     
  24 H24           -0.5289     1.8773     0.9072 H       
  25 H25           -1.0175    -0.3808    -0.0798 H       
  26 H26            0.5883    -0.3548    -0.8473 H       
  27 H27            1.6170    -0.0654     1.4265 H       
  28 H28           -1.2449    -0.5739     2.3580 H       
  29 H29            0.1891    -0.4889     3.4090 H       
  30 H30           -0.3550     0.9584     2.5272 H       
  31 H31            1.8499     1.7668     0.8403 H       
  32 H32            1.8539     1.7219    -0.8222 H       
  33 H33           -2.5692     2.3925    -0.1531 H       
  34 H34            0.9327     1.7548    -2.5042 H       
  35 H35           -0.2495     2.5688    -4.5025 H       
  36 H36           -1.2611     4.8115    -5.2213 H       
  37 H37           -2.4608     5.6117    -7.2146 H       
  38 H38           -5.6941     2.9666    -6.3503 H       
  39 H39           -4.5030     2.1459    -4.3603 H       
  40 H40           -4.8317     2.4854    -2.2868 H       
  41 H41           -4.3530     3.7310    -1.1089 H       
  42 H42           -4.3730     4.1112    -2.8477 H       
  43 H43            1.3999    -2.3107     0.3969 H       
  44 H44            1.2140    -2.3979     2.1650 H       
  45 H45           -0.2201    -2.4829     1.1140 H       
@<TRIPOS>BOND
   1    1    2 1
   2    1    5 1
   3    1    9 1
   4    1   24 1
   5    2    3 1
   6    2   25 1
   7    2   26 1
   8    3    4 1
   9    3   23 1
  10    3   27 1
  11    4   28 1
  12    4   29 1
  13    4   30 1
  14    5   31 1
  15    5   32 1
  16    6    7 ar
  17    6   11 ar
  18    6   12 1
  19    7    8 ar
  20    7   22 1
  21    8    9 ar
  22    8   33 1
  23    9   10 ar
  24   10   11 ar
  25   10   34 1
  26   11   35 1
  27   12   13 ar
  28   12   17 ar
  29   13   14 ar
  30   13   36 1
  31   14   15 ar
  32   14   37 1
  33   15   16 ar
  34   15   18 1
  35   16   17 ar
  36   16   38 1
  37   17   39 1
  38   18   19 1
  39   18   20 1
  40   18   21 1
  41   22   40 1
  42   22   41 1
  43   22   42 1
  44   23   43 1
  45   23   44 1
  46   23   45 1

#	End of record

