#	Name: ASD01028149
#	Creating user name:	WinNT
#	Creation time:	15. 06. 2019 18:56

#	Modifying user name:	WinNT
#	Modification time:	15. 06. 2019 18:56

#	Program:	/corina/corina34_cracker 3.40 0067  02.08.2006

@<TRIPOS>MOLECULE
ASD01028149
  54   57    0    0    0
SMALL
NO_CHARGES


@<TRIPOS>ATOM
   1 N1             0.0153     1.3289     0.3199 N.ar    
   2 C2             0.0543     0.0316     0.5120 C.ar    
   3 N3             1.1645    -0.6795     0.3991 N.ar    
   4 C4             2.3212    -0.1130     0.0796 C.ar    
   5 C5             2.3437     1.2844    -0.1407 C.ar    
   6 C6             3.5212     1.9618    -0.4810 C.ar    
   7 C7             3.4903     3.3121    -0.6829 C.ar    
   8 C8             2.2922     4.0289    -0.5529 C.ar    
   9 C9             1.1208     3.3864    -0.2192 C.ar    
  10 C10            1.1292     2.0020    -0.0074 C.ar    
  11 N11            3.4717    -0.8669    -0.0344 N.pl3   
  12 O12            2.2870     5.3718    -0.7579 O.3     
  13 C13            1.0356     6.0457    -0.6106 C.3     
  14 N14            0.9422    10.2742     0.0062 N.3     
  15 C15            0.0705     9.7463    -1.0512 C.3     
  16 C16           -0.1329     8.2438    -0.8436 C.3     
  17 C17            1.2265     7.5400    -0.8782 C.3     
  18 C18            2.1314     8.1415     0.2006 C.3     
  19 C19            2.2692     9.6470    -0.0372 C.3     
  20 C20            1.0481    11.7368    -0.0803 C.3     
  21 O21            4.6343     3.9689    -1.0133 O.3     
  22 C22            5.8225     3.1837    -1.1303 C.3     
  23 C23            3.4073    -2.2614     0.0653 C.ar    
  24 C24            4.4900    -2.9750     0.5692 C.ar    
  25 C25            4.4226    -4.3524     0.6660 C.ar    
  26 C26            3.2798    -5.0202     0.2617 C.ar    
  27 C27            2.2023    -4.3123    -0.2396 C.ar    
  28 C28            2.2610    -2.9349    -0.3332 C.ar    
  29 F29            5.6058    -2.3229     0.9630 F       
  30 Br30           3.1913    -6.9044     0.3943 Br      
  31 H31           -0.8606    -0.4788     0.7744 H       
  32 H32            4.4493     1.4190    -0.5829 H       
  33 H33            0.2025     3.9462    -0.1207 H       
  34 H34            4.3249    -0.4302    -0.1835 H       
  35 H35            0.3174     5.6381    -1.3221 H       
  36 H36            0.6632     5.9029     0.4038 H       
  37 H37           -0.8942    10.2522    -1.0128 H       
  38 H38            0.5328     9.9194    -2.0230 H       
  39 H39           -0.6078     8.0709     0.1222 H       
  40 H40           -0.7672     7.8494    -1.6374 H       
  41 H41            1.6839     7.6792    -1.8578 H       
  42 H42            1.6922     7.9670     1.1828 H       
  43 H43            3.1149     7.6740     0.1528 H       
  44 H44            2.7212     9.8205    -1.0138 H       
  45 H45            2.9015    10.0807     0.7376 H       
  46 H46            0.0583    12.1799     0.0292 H       
  47 H47            1.6993    12.1015     0.7142 H       
  48 H48            1.4654    12.0143    -1.0482 H       
  49 H49            6.6595     3.8288    -1.3974 H       
  50 H50            6.0300     2.6946    -0.1785 H       
  51 H51            5.6843     2.4286    -1.9042 H       
  52 H52            5.2623    -4.9077     1.0570 H       
  53 H53            1.3121    -4.8366    -0.5542 H       
  54 H54            1.4173    -2.3832    -0.7206 H       
@<TRIPOS>BOND
   1    1    2 ar
   2    1   10 ar
   3    2    3 ar
   4    2   31 1
   5    3    4 ar
   6    4    5 ar
   7    4   11 1
   8    5    6 ar
   9    5   10 ar
  10    6    7 ar
  11    6   32 1
  12    7    8 ar
  13    7   21 1
  14    8    9 ar
  15    8   12 1
  16    9   10 ar
  17    9   33 1
  18   11   23 1
  19   11   34 1
  20   12   13 1
  21   13   17 1
  22   13   35 1
  23   13   36 1
  24   14   15 1
  25   14   19 1
  26   14   20 1
  27   15   16 1
  28   15   37 1
  29   15   38 1
  30   16   17 1
  31   16   39 1
  32   16   40 1
  33   17   18 1
  34   17   41 1
  35   18   19 1
  36   18   42 1
  37   18   43 1
  38   19   44 1
  39   19   45 1
  40   20   46 1
  41   20   47 1
  42   20   48 1
  43   21   22 1
  44   22   49 1
  45   22   50 1
  46   22   51 1
  47   23   24 ar
  48   23   28 ar
  49   24   25 ar
  50   24   29 1
  51   25   26 ar
  52   25   52 1
  53   26   27 ar
  54   26   30 1
  55   27   28 ar
  56   27   53 1
  57   28   54 1

#	End of record

