#	Name: ASD01028692
#	Creating user name:	WinNT
#	Creation time:	15. 06. 2019 18:57

#	Modifying user name:	WinNT
#	Modification time:	15. 06. 2019 18:57

#	Program:	/corina/corina34_cracker 3.40 0067  02.08.2006

@<TRIPOS>MOLECULE
ASD01028692
  27   27    0    0    0
SMALL
NO_CHARGES


@<TRIPOS>ATOM
   1 C1            -0.0184     1.5028     0.0103 C.2     
   2 C2             0.0021    -0.0041     0.0020 C.3     
   3 C3            -0.7241    -0.5171    -1.2431 C.3     
   4 O4             1.0193     2.1208     0.0037 O.2     
   5 Cl5           -1.5334     2.3502     0.0221 Cl      
   6 N6             5.3339    -1.7813    -0.1014 N.ar    
   7 C7             5.8129    -2.5346     0.8585 C.ar    
   8 C8             5.0298    -2.9286     1.9415 C.ar    
   9 C9             3.7265    -2.5282     2.0216 C.ar    
  10 C10            3.2156    -1.7189     0.9892 C.ar    
  11 C11            1.8859    -1.2688     1.0030 C.ar    
  12 C12            1.4295    -0.4870    -0.0142 C.ar    
  13 C13            2.2646    -0.1281    -1.0700 C.ar    
  14 C14            3.5588    -0.5471    -1.1155 C.ar    
  15 C15            4.0670    -1.3551    -0.0837 C.ar    
  16 H16           -0.4983    -0.3791     0.8948 H       
  17 H17           -0.7093    -1.6070    -1.2491 H       
  18 H18           -1.7565    -0.1678    -1.2314 H       
  19 H19           -0.2237    -0.1421    -2.1359 H       
  20 H20            6.8419    -2.8588     0.8084 H       
  21 H21            5.4528    -3.5503     2.7167 H       
  22 H22            3.1050    -2.8245     2.8537 H       
  23 H23            1.2289    -1.5407     1.8159 H       
  24 H24            1.8788     0.4923    -1.8653 H       
  25 H25            4.1928    -0.2601    -1.9414 H       
  26 Cl26          11.8419     7.3502     7.8537 Cl      
  27 H27           11.8419     8.7202     7.8537 H       
@<TRIPOS>BOND
   1    1    2 1
   2    1    4 2
   3    1    5 1
   4    2    3 1
   5    2   12 1
   6    2   16 1
   7    3   17 1
   8    3   18 1
   9    3   19 1
  10    6    7 ar
  11    6   15 ar
  12    7    8 ar
  13    7   20 1
  14    8    9 ar
  15    8   21 1
  16    9   10 ar
  17    9   22 1
  18   10   11 ar
  19   10   15 ar
  20   11   12 ar
  21   11   23 1
  22   12   13 ar
  23   13   14 ar
  24   13   24 1
  25   14   15 ar
  26   14   25 1
  27   26   27 1

#	End of record

