#	Name: ASD05720193
#	Creating user name:	WinNT
#	Creation time:	15. 06. 2019 21:02

#	Modifying user name:	WinNT
#	Modification time:	15. 06. 2019 21:02

#	Program:	/corina/corina34_cracker 3.40 0067  02.08.2006

@<TRIPOS>MOLECULE
ASD05720193
  50   56    0    0    0
SMALL
NO_CHARGES


@<TRIPOS>ATOM
   1 O1            -0.0162     1.3411     0.0094 O.3     
   2 C2             0.0021    -0.0041     0.0020 C.2     
   3 N3             1.1448    -0.5026    -0.4981 N.am    
   4 C4             2.1045     0.6054    -0.6813 C.3     
   5 C5             1.3700     1.7943    -0.0014 C.3     
   6 C6             1.5550     2.9413    -1.0057 C.3     
   7 C7             1.8212     2.2838    -2.3413 C.ar    
   8 C8             1.7856     2.8130    -3.6217 C.ar    
   9 C9             2.0748     2.0159    -4.7115 C.ar    
  10 C10            2.4013     0.6854    -4.5252 C.ar    
  11 C11            2.4343     0.1562    -3.2504 C.ar    
  12 C12            2.1411     0.9543    -2.1556 C.ar    
  13 O13           -0.9146    -0.6927     0.4041 O.2     
  14 C14            2.8009    -3.4872    -1.5721 C.2     
  15 N15            2.5536    -2.2059    -1.2827 N.2     
  16 C16            1.3844    -1.8382    -0.7936 C.2     
  17 C17            0.3786    -2.8005    -0.5703 C.2     
  18 C18            0.6255    -4.0978    -0.8620 C.2     
  19 N19            1.8465    -4.4482    -1.3676 N.pl3   
  20 N20            2.3849    -5.6796    -1.7575 N.2     
  21 C21            3.6110    -5.5004    -2.1836 C.2     
  22 C22            3.9258    -4.1389    -2.0950 C.2     
  23 C23            5.2075    -3.5067    -2.4801 C.ar    
  24 C24            6.4134    -4.0339    -2.0148 C.ar    
  25 C25            7.6071    -3.4440    -2.3741 C.ar    
  26 C26            7.6081    -2.3196    -3.2034 C.ar    
  27 C27            6.4027    -1.7942    -3.6672 C.ar    
  28 C28            5.2108    -2.3865    -3.3132 C.ar    
  29 N29           10.3984    -0.3692    -4.4635 N.pl3   
  30 N30            9.0217    -0.6270    -4.3613 N.2     
  31 C31            8.8911    -1.6845    -3.5898 C.2     
  32 N32           10.1101    -2.0925    -3.2110 N.2     
  33 C33           11.0193    -1.3102    -3.7299 C.2     
  34 F34            8.7749    -3.9530    -1.9242 F       
  35 H35            3.0857     0.4005    -0.2532 H       
  36 H36            1.7504     2.0227     0.9942 H       
  37 H37            0.6488     3.5448    -1.0580 H       
  38 H38            2.4036     3.5611    -0.7162 H       
  39 H39            1.5305     3.8523    -3.7676 H       
  40 H40            2.0457     2.4311    -5.7080 H       
  41 H41            2.6298     0.0607    -5.3760 H       
  42 H42            2.6892    -0.8833    -3.1057 H       
  43 H43           -0.5797    -2.5046    -0.1698 H       
  44 H44           -0.1332    -4.8486    -0.6970 H       
  45 H45            4.2697    -6.2754    -2.5467 H       
  46 H46            6.4115    -4.9029    -1.3736 H       
  47 H47            6.4039    -0.9250    -4.3082 H       
  48 H48            4.2779    -1.9815    -3.6766 H       
  49 H49           10.8191     0.3447    -4.9675 H       
  50 H50           12.0866    -1.4032    -3.5930 H       
@<TRIPOS>BOND
   1    1    2 1
   2    1    5 1
   3    2    3 am
   4    2   13 2
   5    3   16 1
   6    3    4 1
   7    4    5 1
   8    4   12 1
   9    4   35 1
  10    5    6 1
  11    5   36 1
  12    6    7 1
  13    6   37 1
  14    6   38 1
  15    7    8 ar
  16    7   12 ar
  17    8    9 ar
  18    8   39 1
  19    9   10 ar
  20    9   40 1
  21   10   11 ar
  22   10   41 1
  23   11   12 ar
  24   11   42 1
  25   14   15 1
  26   14   19 1
  27   14   22 2
  28   15   16 2
  29   16   17 1
  30   17   18 2
  31   17   43 1
  32   18   19 1
  33   18   44 1
  34   19   20 1
  35   20   21 2
  36   21   22 1
  37   21   45 1
  38   22   23 1
  39   23   24 ar
  40   23   28 ar
  41   24   25 ar
  42   24   46 1
  43   25   26 ar
  44   25   34 1
  45   26   27 ar
  46   26   31 1
  47   27   28 ar
  48   27   47 1
  49   28   48 1
  50   29   30 1
  51   29   33 1
  52   29   49 1
  53   30   31 2
  54   31   32 1
  55   32   33 2
  56   33   50 1

#	End of record

