#	Name: ASD01814043
#	Creating user name:	WinNT
#	Creation time:	15. 06. 2019 19:31

#	Modifying user name:	WinNT
#	Modification time:	15. 06. 2019 19:31

#	Program:	/corina/corina34_cracker 3.40 0067  02.08.2006

@<TRIPOS>MOLECULE
ASD01814043
  53   56    0    0    0
SMALL
NO_CHARGES


@<TRIPOS>ATOM
   1 C1             2.0159     2.6512    -0.4941 C.ar    
   2 C2             1.4048     1.4076    -0.5340 C.ar    
   3 C3             2.1420     0.2540    -0.3726 C.ar    
   4 C4             3.5164     0.3285    -0.1671 C.ar    
   5 C5             4.1367     1.5893    -0.1271 C.ar    
   6 C6             3.3782     2.7508    -0.2915 C.ar    
   7 N7             4.2630    -0.8187    -0.0041 N.pl3   
   8 C8             5.5870    -0.8003     0.1970 C.2     
   9 C9             6.3055     0.3765     0.2556 C.2     
  10 C10            5.5926     1.6541     0.0911 C.2     
  11 F11            3.9733     3.9631    -0.2531 F       
  12 O12            6.1814     2.7201     0.1344 O.2     
  13 C13            7.7579     0.3548     0.4790 C.2     
  14 O14            8.4488     1.5110     0.5342 O.3     
  15 O15            8.3363    -0.7059     0.6138 O.2     
  16 C16            3.5790    -2.1133    -0.0524 C.3     
  17 C17            3.5579    -2.6177    -1.4723 C.ar    
  18 C18            4.5927    -3.4072    -1.9394 C.ar    
  19 C19            4.5763    -3.8711    -3.2402 C.ar    
  20 C20            3.5191    -3.5441    -4.0792 C.ar    
  21 C21            2.4813    -2.7515    -3.6069 C.ar    
  22 C22            2.5012    -2.2948    -2.3036 C.ar    
  23 N23            3.4998    -4.0122    -5.3979 N.am    
  24 C24            2.3260    -4.3053    -5.9918 C.2     
  25 N25            2.2975    -4.6508    -7.2943 N.am    
  26 O26            1.2928    -4.2581    -5.3527 O.2     
  27 C27            1.0443    -5.0851    -7.9263 C.3     
  28 C28            0.7989    -4.2300    -9.1735 C.3     
  29 C29            2.0235    -4.3061   -10.0883 C.3     
  30 C30            3.2459    -3.7501    -9.3543 C.3     
  31 C31            3.5179    -4.5943    -8.1106 C.3     
  32 H32            1.4249     3.5454    -0.6264 H       
  33 H33            0.3386     1.3418    -0.6930 H       
  34 H34            1.6526    -0.7082    -0.4053 H       
  35 H35            6.1097    -1.7376     0.3176 H       
  36 H36            9.4020     1.4462     0.6830 H       
  37 H37            4.1077    -2.8274     0.5790 H       
  38 H38            2.5565    -1.9977     0.3073 H       
  39 H39            5.4146    -3.6611    -1.2865 H       
  40 H40            5.3851    -4.4871    -3.6047 H       
  41 H41            1.6579    -2.4952    -4.2571 H       
  42 H42            1.6942    -1.6785    -1.9356 H       
  43 H43            4.3312    -4.1256    -5.8845 H       
  44 H44            1.1235    -6.1339    -8.2122 H       
  45 H45            0.2184    -4.9562    -7.2267 H       
  46 H46           -0.0760    -4.6045    -9.7049 H       
  47 H47            0.6298    -3.1948    -8.8773 H       
  48 H48            2.2068    -5.3446   -10.3641 H       
  49 H49            1.8417    -3.7183   -10.9880 H       
  50 H50            4.1127    -3.7830   -10.0144 H       
  51 H51            3.0538    -2.7194    -9.0564 H       
  52 H52            4.3250    -4.1442    -7.5327 H       
  53 H53            3.7986    -5.6045    -8.4088 H       
@<TRIPOS>BOND
   1    1    2 ar
   2    1    6 ar
   3    1   32 1
   4    2    3 ar
   5    2   33 1
   6    3    4 ar
   7    3   34 1
   8    4    5 ar
   9    4    7 1
  10    5    6 ar
  11    5   10 1
  12    6   11 1
  13    7    8 1
  14    7   16 1
  15    8    9 2
  16    8   35 1
  17    9   10 1
  18    9   13 1
  19   10   12 2
  20   13   14 1
  21   13   15 2
  22   14   36 1
  23   16   17 1
  24   16   37 1
  25   16   38 1
  26   17   18 ar
  27   17   22 ar
  28   18   19 ar
  29   18   39 1
  30   19   20 ar
  31   19   40 1
  32   20   21 ar
  33   20   23 1
  34   21   22 ar
  35   21   41 1
  36   22   42 1
  37   23   24 am
  38   23   43 1
  39   24   25 am
  40   24   26 2
  41   25   27 1
  42   25   31 1
  43   27   28 1
  44   27   44 1
  45   27   45 1
  46   28   29 1
  47   28   46 1
  48   28   47 1
  49   29   30 1
  50   29   48 1
  51   29   49 1
  52   30   31 1
  53   30   50 1
  54   30   51 1
  55   31   52 1
  56   31   53 1

#	End of record

