#	Name: ASD00990015
#	Creating user name:	WinNT
#	Creation time:	15. 06. 2019 18:54

#	Modifying user name:	WinNT
#	Modification time:	15. 06. 2019 18:54

#	Program:	/corina/corina34_cracker 3.40 0067  02.08.2006

@<TRIPOS>MOLECULE
ASD00990015
  30   31    0    0    0
SMALL
NO_CHARGES


@<TRIPOS>ATOM
   1 C1            -0.0167     1.3799     0.0096 C.ar    
   2 C2             0.0021    -0.0041     0.0020 C.ar    
   3 C3            -1.1807    -0.7173     0.0095 C.ar    
   4 C4            -2.3931    -0.0455     0.0247 C.ar    
   5 C5            -2.4109     1.3490     0.0323 C.ar    
   6 C6            -1.2199     2.0580     0.0305 C.ar    
   7 O7            -3.6822    -0.4647     0.0347 O.3     
   8 C8            -4.4935     0.6046     0.0482 C.2     
   9 N9            -3.7523     1.7303     0.0472 N.am    
  10 O10           -5.7087     0.5639     0.0590 O.2     
  11 C11           -4.2626     3.1035     0.0604 C.3     
  12 C12           -4.4236     3.5659     1.4856 C.2     
  13 O13           -4.1411     2.8245     2.3968 O.2     
  14 O14           -4.8808     4.8015     1.7427 O.3     
  15 C15           -5.5419     6.6108     3.2326 C.3     
  16 C16           -5.0105     5.1791     3.1388 C.3     
  17 C17            1.2793     2.1490     0.0014 C.3     
  18 F18            2.3533     1.2527    -0.0137 F       
  19 F19            1.3328     2.9602    -1.1371 F       
  20 F20            1.3547     2.9480     1.1473 F       
  21 H21            0.9460    -0.5287    -0.0102 H       
  22 H22           -1.1609    -1.7971     0.0031 H       
  23 H23           -1.2326     3.1379     0.0364 H       
  24 H24           -3.5599     3.7572    -0.4565 H       
  25 H25           -5.2284     3.1371    -0.4438 H       
  26 H26           -4.8482     7.2890     2.7357 H       
  27 H27           -6.5167     6.6690     2.7484 H       
  28 H28           -5.6392     6.8942     4.2806 H       
  29 H29           -5.7041     4.5008     3.6357 H       
  30 H30           -4.0357     5.1208     3.6230 H       
@<TRIPOS>BOND
   1    1    2 ar
   2    1   17 1
   3    1    6 ar
   4    2    3 ar
   5    2   21 1
   6    3    4 ar
   7    3   22 1
   8    4    5 ar
   9    4    7 1
  10    5    6 ar
  11    5    9 1
  12    6   23 1
  13    7    8 1
  14    8    9 am
  15    8   10 2
  16    9   11 1
  17   11   12 1
  18   11   24 1
  19   11   25 1
  20   12   13 2
  21   12   14 1
  22   14   16 1
  23   15   16 1
  24   15   26 1
  25   15   27 1
  26   15   28 1
  27   16   29 1
  28   16   30 1
  29   17   18 1
  30   17   19 1
  31   17   20 1

#	End of record

