#	Name: ASD03090789
#	Creating user name:	WinNT
#	Creation time:	15. 06. 2019 20:29

#	Modifying user name:	WinNT
#	Modification time:	15. 06. 2019 20:29

#	Program:	/corina/corina34_cracker 3.40 0067  02.08.2006

@<TRIPOS>MOLECULE
ASD03090789
  47   51    0    0    0
SMALL
NO_CHARGES


@<TRIPOS>ATOM
   1 N1            -0.0165     1.3647     0.0095 N.am    
   2 C2             0.0021    -0.0041     0.0020 C.2     
   3 N3             1.1060    -0.7060    -0.0119 N.2     
   4 C4             2.3209    -0.1124    -0.0203 C.ar    
   5 C5             2.3964     1.3008    -0.0139 C.ar    
   6 C6             1.1414     2.0673     0.0023 C.2     
   7 O7             1.1432     3.2842     0.0080 O.2     
   8 C8             3.5103    -0.8466    -0.0347 C.ar    
   9 N9             4.6708    -0.2265    -0.0416 N.ar    
  10 C10            4.7758     1.0957    -0.0360 C.ar    
  11 C11            3.6482     1.9074    -0.0216 C.ar    
  12 N12            6.0388     1.6807    -0.0435 N.3     
  13 C13           -1.2886    -0.7244     0.0105 C.ar    
  14 C14           -1.3126    -2.1200     0.0032 C.ar    
  15 C15           -2.5206    -2.7861     0.0112 C.ar    
  16 C16           -3.7067    -2.0739     0.0263 C.ar    
  17 C17           -3.6901    -0.6904     0.0336 C.ar    
  18 C18           -2.4888    -0.0120     0.0316 C.ar    
  19 C19            7.0933     0.6572    -0.0573 C.3     
  20 C20            8.2502     1.0988    -0.9411 C.3     
  21 C21            9.0983     2.1908    -0.3209 C.3     
  22 N22            8.6667     2.4981     1.0503 N.3     
  23 C23            7.4954     3.3872     1.0213 C.3     
  24 C24            6.2077     2.5822     1.1024 C.3     
  25 C25            8.5560     1.3199     1.8834 C.3     
  26 C26            7.5059     0.3484     1.3703 C.3     
  27 H27           -0.8650     1.8348     0.0161 H       
  28 H28            3.4766    -1.9261    -0.0398 H       
  29 H29            3.7414     2.9834    -0.0174 H       
  30 H30           -0.3874    -2.6772    -0.0089 H       
  31 H31           -2.5406    -3.8659     0.0052 H       
  32 H32           -4.6498    -2.6002     0.0321 H       
  33 H33           -4.6195    -0.1404     0.0454 H       
  34 H34           -2.4772     1.0679     0.0372 H       
  35 H35            6.6725    -0.2546    -0.4810 H       
  36 H36            8.8846     0.2359    -1.1433 H       
  37 H37            7.8483     1.4630    -1.8866 H       
  38 H38           10.1386     1.8659    -0.3021 H       
  39 H39            9.0191     3.0917    -0.9292 H       
  40 H40            7.5441     4.0729     1.8673 H       
  41 H41            7.5027     3.9606     0.0944 H       
  42 H42            5.3630     3.2702     1.1379 H       
  43 H43            6.2180     1.9911     2.0181 H       
  44 H44            9.5215     0.8147     1.9113 H       
  45 H45            8.2900     1.6262     2.8951 H       
  46 H46            6.6273     0.4044     2.0130 H       
  47 H47            7.9091    -0.6634     1.4116 H       
@<TRIPOS>BOND
   1    1    2 1
   2    1    6 am
   3    1   27 1
   4    2    3 2
   5    2   13 1
   6    3    4 1
   7    4    5 ar
   8    4    8 ar
   9    5    6 1
  10    5   11 ar
  11    6    7 2
  12    8    9 ar
  13    8   28 1
  14    9   10 ar
  15   10   11 ar
  16   10   12 1
  17   11   29 1
  18   12   19 1
  19   12   24 1
  20   13   14 ar
  21   13   18 ar
  22   14   15 ar
  23   14   30 1
  24   15   16 ar
  25   15   31 1
  26   16   17 ar
  27   16   32 1
  28   17   18 ar
  29   17   33 1
  30   18   34 1
  31   19   20 1
  32   19   26 1
  33   19   35 1
  34   20   21 1
  35   20   36 1
  36   20   37 1
  37   21   22 1
  38   21   38 1
  39   21   39 1
  40   22   23 1
  41   22   25 1
  42   23   24 1
  43   23   40 1
  44   23   41 1
  45   24   42 1
  46   24   43 1
  47   25   26 1
  48   25   44 1
  49   25   45 1
  50   26   46 1
  51   26   47 1

#	End of record

