#	Name: ASD01870622
#	Creating user name:	WinNT
#	Creation time:	15. 06. 2019 19:39

#	Modifying user name:	WinNT
#	Modification time:	15. 06. 2019 19:39

#	Program:	/corina/corina34_cracker 3.40 0067  02.08.2006

@<TRIPOS>MOLECULE
ASD01870622
  46   50    0    0    0
SMALL
NO_CHARGES


@<TRIPOS>ATOM
   1 C1            -0.0671     1.4258    -0.0458 C.ar    
   2 C2            -0.0579     0.0359    -0.0535 C.ar    
   3 C3             1.1372    -0.6556    -0.0574 C.ar    
   4 C4             2.3453     0.0259    -0.0536 C.ar    
   5 C5             2.3541     1.4108    -0.0459 C.ar    
   6 C6             1.1350     2.1203    -0.0419 C.ar    
   7 C7             3.4182     2.4365    -0.0393 C.2     
   8 N8             2.8411     3.6517    -0.0321 N.am    
   9 C9             1.4997     3.5506    -0.0334 C.2     
  10 C10            3.5446     4.8630    -0.0241 C.ar    
  11 C11            3.8995     5.4679     1.1994 C.ar    
  12 C12            4.6106     6.6927     1.1907 C.ar    
  13 C13            4.9524     7.2877    -0.0421 C.ar    
  14 C14            4.5911     6.6714    -1.2207 C.ar    
  15 C15            3.8976     5.4658    -1.2114 C.ar    
  16 O16            0.7189     4.4811    -0.0285 O.2     
  17 O17            4.6131     2.2188    -0.0397 O.2     
  18 N18            5.6533     8.4958    -0.0679 N.am    
  19 C19            6.5484     8.7348    -1.0468 C.2     
  20 C20            7.1938    10.0476    -1.1454 C.2     
  21 O21            6.8209     7.8609    -1.8489 O.2     
  22 C22            8.1136    10.4212    -2.0832 C.2     
  23 C23            8.4592    11.7522    -1.8016 C.2     
  24 C24            7.7444    12.1280    -0.7182 C.2     
  25 O25            6.9788    11.1001    -0.3292 O.3     
  26 C26            8.6534     9.5694    -3.2031 C.3     
  27 C27            3.5607     4.8769     2.4276 C.ar    
  28 C28            3.9189     5.4871     3.5907 C.ar    
  29 C29            4.6180     6.6923     3.5820 C.ar    
  30 C30            4.9633     7.2931     2.4100 C.ar    
  31 F31           -1.2394     2.0972    -0.0477 F       
  32 H32           -0.9917    -0.5068    -0.0562 H       
  33 H33            1.1314    -1.7356    -0.0631 H       
  34 H34            3.2762    -0.5216    -0.0563 H       
  35 H35            4.8532     7.1285    -2.1635 H       
  36 H36            3.6289     4.9982    -2.1471 H       
  37 H37            5.4958     9.1627     0.6187 H       
  38 H38            9.1641    12.3613    -2.3479 H       
  39 H39            7.7813    13.0987    -0.2461 H       
  40 H40            8.0259     9.6900    -4.0862 H       
  41 H41            9.6722     9.8787    -3.4362 H       
  42 H42            8.6523     8.5233    -2.8968 H       
  43 H43            3.0183     3.9433     2.4492 H       
  44 H44            3.6571     5.0305     4.5338 H       
  45 H45            4.8900     7.1567     4.5184 H       
  46 H46            5.5059     8.2269     2.4181 H       
@<TRIPOS>BOND
   1    1    2 ar
   2    1    6 ar
   3    1   31 1
   4    2    3 ar
   5    2   32 1
   6    3    4 ar
   7    3   33 1
   8    4    5 ar
   9    4   34 1
  10    5    7 1
  11    5    6 ar
  12    6    9 1
  13    7    8 am
  14    7   17 2
  15    8    9 am
  16    8   10 1
  17    9   16 2
  18   10   11 ar
  19   10   15 ar
  20   11   27 ar
  21   11   12 ar
  22   12   13 ar
  23   12   30 ar
  24   13   14 ar
  25   13   18 1
  26   14   15 ar
  27   14   35 1
  28   15   36 1
  29   18   19 am
  30   18   37 1
  31   19   20 1
  32   19   21 2
  33   20   22 2
  34   20   25 1
  35   22   23 1
  36   22   26 1
  37   23   24 2
  38   23   38 1
  39   24   25 1
  40   24   39 1
  41   26   40 1
  42   26   41 1
  43   26   42 1
  44   27   28 ar
  45   27   43 1
  46   28   29 ar
  47   28   44 1
  48   29   30 ar
  49   29   45 1
  50   30   46 1

#	End of record

