#	Name: ASD01915647
#	Creating user name:	WinNT
#	Creation time:	15. 06. 2019 20:05

#	Modifying user name:	WinNT
#	Modification time:	15. 06. 2019 20:05

#	Program:	/corina/corina34_cracker 3.40 0067  02.08.2006

@<TRIPOS>MOLECULE
ASD01915647
  47   50    0    0    0
SMALL
NO_CHARGES


@<TRIPOS>ATOM
   1 C1            -0.0166     1.3727     0.0096 C.2     
   2 N2             0.0021    -0.0041     0.0020 N.pl3   
   3 C3            -1.2434    -0.7807    -0.0179 C.3     
   4 C4            -2.3411     0.0067     0.6955 C.3     
   5 N5            -2.4045     1.3987     0.2637 N.am    
   6 C6            -1.2813     2.1228     0.0393 C.2     
   7 C7             1.2844     1.7904    -0.0006 C.2     
   8 C8             2.0436     0.6124    -0.0024 C.2     
   9 N9             1.2133    -0.4043     0.0045 N.2     
  10 C10            3.5482     0.5278    -0.0111 C.3     
  11 O11            4.0995     1.8461    -0.0174 O.3     
  12 C12            5.4546     1.9483    -0.0257 C.ar    
  13 O13           -1.3172     3.3271    -0.1285 O.2     
  14 C14            6.0572     3.1979    -0.0322 C.ar    
  15 C15            6.2377     0.8031    -0.0220 C.ar    
  16 C16            7.6150     0.9096    -0.0305 C.ar    
  17 C17            8.2132     2.1561    -0.0427 C.ar    
  18 C18            7.4349     3.2990    -0.0407 C.ar    
  19 C19           -3.6550     2.0007     0.0769 C.ar    
  20 C20           -4.2874     1.9491    -1.1656 C.ar    
  21 C21           -4.2878     2.6537     1.1280 C.ar    
  22 C22           -5.5260     3.2344     0.8949 C.ar    
  23 C23           -6.0882     3.1474    -0.3632 C.ar    
  24 N24           -5.4677     2.5164    -1.3425 N.ar    
  25 C25           -2.0778    -0.0321     2.2022 C.3     
  26 O26           -3.6851     1.3111    -2.2014 O.3     
  27 C27           -4.3844     1.2937    -3.4475 C.3     
  28 H28           -1.5404    -0.9655    -1.0502 H       
  29 H29           -1.0875    -1.7314     0.4921 H       
  30 H30           -3.3017    -0.4681     0.4956 H       
  31 H31            1.6485     2.8071    -0.0066 H       
  32 H32            3.8874    -0.0036     0.8781 H       
  33 H33            3.8769    -0.0077    -0.9018 H       
  34 H34            5.4498     4.0908    -0.0310 H       
  35 H35            5.7710    -0.1708    -0.0121 H       
  36 H36            8.2251     0.0184    -0.0272 H       
  37 H37            9.2901     2.2373    -0.0493 H       
  38 H38            7.9045     4.2715    -0.0506 H       
  39 H39           -3.8268     2.7074     2.1032 H       
  40 H40           -6.0451     3.7492     1.6898 H       
  41 H41           -7.0520     3.5986    -0.5475 H       
  42 H42           -1.1065     0.4154     2.4129 H       
  43 H43           -2.8560     0.5273     2.7215 H       
  44 H44           -2.0834    -1.0666     2.5455 H       
  45 H45           -5.3462     0.7976    -3.3174 H       
  46 H46           -4.5462     2.3165    -3.7877 H       
  47 H47           -3.7942     0.7536    -4.1878 H       
@<TRIPOS>BOND
   1    1    2 1
   2    1    7 2
   3    1    6 1
   4    2    3 1
   5    2    9 1
   6    3    4 1
   7    3   28 1
   8    3   29 1
   9    4    5 1
  10    4   25 1
  11    4   30 1
  12    5    6 am
  13    5   19 1
  14    6   13 2
  15    7    8 1
  16    7   31 1
  17    8    9 2
  18    8   10 1
  19   10   11 1
  20   10   32 1
  21   10   33 1
  22   11   12 1
  23   12   14 ar
  24   12   15 ar
  25   14   18 ar
  26   14   34 1
  27   15   16 ar
  28   15   35 1
  29   16   17 ar
  30   16   36 1
  31   17   18 ar
  32   17   37 1
  33   18   38 1
  34   19   20 ar
  35   19   21 ar
  36   20   26 1
  37   20   24 ar
  38   21   22 ar
  39   21   39 1
  40   22   23 ar
  41   22   40 1
  42   23   24 ar
  43   23   41 1
  44   25   42 1
  45   25   43 1
  46   25   44 1
  47   26   27 1
  48   27   45 1
  49   27   46 1
  50   27   47 1

#	End of record

