#	Name: ASD05663002
#	Creating user name:	WinNT
#	Creation time:	15. 06. 2019 21:01

#	Modifying user name:	WinNT
#	Modification time:	15. 06. 2019 21:01

#	Program:	/corina/corina34_cracker 3.40 0067  02.08.2006

@<TRIPOS>MOLECULE
ASD05663002
  63   67    0    0    0
SMALL
NO_CHARGES


@<TRIPOS>ATOM
   1 C1            -0.0171     1.3936     0.0124 C.ar    
   2 C2            -1.2049     2.0185    -0.3769 C.ar    
   3 C3            -2.3872     1.3137    -0.3711 C.ar    
   4 C4            -2.3999    -0.0264     0.0243 C.ar    
   5 C5            -1.2123    -0.6513     0.4135 C.ar    
   6 C6            -0.0289     0.0516     0.4019 C.ar    
   7 C7            -3.6700    -0.7830     0.0313 C.2     
   8 N8            -3.5865    -2.0615    -0.0767 N.2     
   9 C9            -4.5940    -2.9700    -0.0777 C.ar    
  10 C10           -5.7950    -2.7397    -0.7622 C.ar    
  11 N11           -6.0436    -1.5004    -1.3687 N.pl3   
  12 C12           -6.0519    -0.3542    -0.5687 C.ar    
  13 C13           -4.9107    -0.0016     0.1672 C.ar    
  14 C14           -7.1851     0.4339    -0.4907 C.ar    
  15 C15           -7.2108     1.5592     0.3256 C.ar    
  16 C16           -6.1018     1.8905     1.0745 C.ar    
  17 C17           -4.9556     1.1140     0.9990 C.ar    
  18 C18           -8.4740     2.3804     0.3422 C.3     
  19 C19           -8.5122     3.2850     1.5719 C.3     
  20 C20           -7.1917     4.0603     1.6447 C.3     
  21 C21           -6.0764     3.0792     2.0003 C.3     
  22 C22           -6.2657     2.6009     3.4413 C.3     
  23 C23           -4.7248     3.7856     1.8775 C.3     
  24 C24           -8.5312     3.2429    -0.9202 C.3     
  25 C25           -9.6838     1.4441     0.3672 C.3     
  26 C26           -6.2890    -1.4087    -2.8101 C.3     
  27 C27           -4.4239    -4.1770     0.6107 C.ar    
  28 C28           -5.4098    -5.1416     0.5739 C.ar    
  29 C29           -6.5715    -4.9256    -0.1451 C.ar    
  30 C30           -6.7638    -3.7277    -0.8119 C.ar    
  31 C31            1.2517     2.1498     0.0063 C.2     
  32 O32            1.2627     3.3149    -0.3370 O.2     
  33 O33            2.3968     1.5473     0.3816 O.3     
  34 H34           -1.1952     3.0545    -0.6819 H       
  35 H35           -3.3052     1.7966    -0.6720 H       
  36 H36           -1.2223    -1.6870     0.7195 H       
  37 H37            0.8891    -0.4316     0.7024 H       
  38 H38           -8.0588     0.1732    -1.0697 H       
  39 H39           -4.0899     1.3786     1.5881 H       
  40 H40           -9.3436     3.9847     1.4863 H       
  41 H41           -8.6308     2.6782     2.4696 H       
  42 H42           -6.9821     4.5200     0.6788 H       
  43 H43           -7.2606     4.8316     2.4118 H       
  44 H44           -7.2319     2.1053     3.5356 H       
  45 H45           -5.4713     1.9003     3.6988 H       
  46 H46           -6.2286     3.4562     4.1159 H       
  47 H47           -4.6954     4.6351     2.5599 H       
  48 H48           -3.9261     3.0884     2.1306 H       
  49 H49           -4.5900     4.1366     0.8544 H       
  50 H50           -8.5250     2.5998    -1.8003 H       
  51 H51           -9.4438     3.8388    -0.9121 H       
  52 H52           -7.6654     3.9047    -0.9477 H       
  53 H53           -9.6419     0.8202     1.2600 H       
  54 H54          -10.6000     2.0345     0.3793 H       
  55 H55           -9.6714     0.8107    -0.5197 H       
  56 H56           -6.2401    -2.4043    -3.2511 H       
  57 H57           -7.2770    -0.9824    -2.9840 H       
  58 H58           -5.5325    -0.7711    -3.2676 H       
  59 H59           -3.5182    -4.3538     1.1719 H       
  60 H60           -5.2736    -6.0699     1.1088 H       
  61 H61           -7.3302    -5.6931    -0.1863 H       
  62 H62           -7.6721    -3.5634    -1.3726 H       
  63 H63            3.2017     2.0828     0.3613 H       
@<TRIPOS>BOND
   1    1    2 ar
   2    1   31 1
   3    1    6 ar
   4    2    3 ar
   5    2   34 1
   6    3    4 ar
   7    3   35 1
   8    4    5 ar
   9    4    7 1
  10    5    6 ar
  11    5   36 1
  12    6   37 1
  13    7    8 2
  14    7   13 1
  15    8    9 1
  16    9   10 ar
  17    9   27 ar
  18   10   11 1
  19   10   30 ar
  20   11   12 1
  21   11   26 1
  22   12   13 ar
  23   12   14 ar
  24   13   17 ar
  25   14   15 ar
  26   14   38 1
  27   15   16 ar
  28   15   18 1
  29   16   17 ar
  30   16   21 1
  31   17   39 1
  32   18   19 1
  33   18   24 1
  34   18   25 1
  35   19   20 1
  36   19   40 1
  37   19   41 1
  38   20   21 1
  39   20   42 1
  40   20   43 1
  41   21   22 1
  42   21   23 1
  43   22   44 1
  44   22   45 1
  45   22   46 1
  46   23   47 1
  47   23   48 1
  48   23   49 1
  49   24   50 1
  50   24   51 1
  51   24   52 1
  52   25   53 1
  53   25   54 1
  54   25   55 1
  55   26   56 1
  56   26   57 1
  57   26   58 1
  58   27   28 ar
  59   27   59 1
  60   28   29 ar
  61   28   60 1
  62   29   30 ar
  63   29   61 1
  64   30   62 1
  65   31   32 2
  66   31   33 1
  67   33   63 1

#	End of record

