#	Name: ASD00069151
#	Creating user name:	WinNT
#	Creation time:	15. 06. 2019 18:29

#	Modifying user name:	WinNT
#	Modification time:	15. 06. 2019 18:29

#	Program:	/corina/corina34_cracker 3.40 0067  02.08.2006

@<TRIPOS>MOLECULE
ASD00069151
  56   59    0    0    0
SMALL
NO_CHARGES


@<TRIPOS>ATOM
   1 C1            -0.0969     1.1970    -0.5381 C.2     
   2 N2             0.0007    -0.0057    -0.0192 N.2     
   3 C3             1.2459    -0.4633    -0.2064 C.2     
   4 C4             1.9559     0.5087    -0.8769 C.2     
   5 N5             1.1101     1.5422    -1.0803 N.pl3   
   6 C6            -1.3105     2.0347    -0.5412 C.2     
   7 O7            -1.2867     3.1377    -1.0531 O.2     
   8 N8            -2.4460     1.5781     0.0232 N.am    
   9 C9             3.4974    -3.2981     0.3752 C.ar    
  10 N10            3.0301    -2.1224    -0.0147 N.ar    
  11 C11            1.7670    -1.7801     0.2304 C.ar    
  12 C12            0.9398    -2.6821     0.9068 C.ar    
  13 C13            1.4702    -3.8984     1.2951 C.ar    
  14 N14            2.7359    -4.1716     1.0176 N.ar    
  15 C15            0.6170    -4.9025     2.0265 C.3     
  16 N16            4.8137    -3.6254     0.0996 N.pl3   
  17 C17           -3.5630     2.4164     0.1262 C.ar    
  18 C18           -4.8478     1.8851     0.0209 C.ar    
  19 C19           -5.9510     2.7219     0.1244 C.ar    
  20 C20           -5.7724     4.0788     0.3316 C.ar    
  21 C21           -4.4975     4.6042     0.4354 C.ar    
  22 C22           -3.3943     3.7768     0.3391 C.ar    
  23 F23           -7.1979     2.2121     0.0226 F       
  24 N24           -5.0250     0.5116    -0.1892 N.3     
  25 C25           -5.7947    -0.0932     0.9054 C.3     
  26 C26           -5.8439    -1.6113     0.7182 C.3     
  27 C27           -6.4970    -1.9336    -0.6287 C.3     
  28 C28           -5.7042    -1.2522    -1.7475 C.3     
  29 C29           -5.6590     0.2555    -1.4888 C.3     
  30 C30           -6.4941    -3.4476    -0.8491 C.3     
  31 N31           -7.2261    -3.7643    -2.0828 N.3     
  32 H32            2.9907     0.4547    -1.1813 H       
  33 H33            1.3203     2.3761    -1.5289 H       
  34 H34           -2.4895     0.6688     0.3581 H       
  35 H35           -0.0893    -2.4343     1.1211 H       
  36 H36            0.1258    -5.5557     1.3053 H       
  37 H37            1.2448    -5.4991     2.6883 H       
  38 H38           -0.1366    -4.3790     2.6148 H       
  39 H39            5.3811    -2.9968    -0.3735 H       
  40 H40            5.1689    -4.4836     0.3796 H       
  41 H41           -6.6310     4.7290     0.4120 H       
  42 H42           -4.3634     5.6636     0.5967 H       
  43 H43           -2.4004     4.1904     0.4255 H       
  44 H44           -5.3173     0.1400     1.8572 H       
  45 H45           -6.8087     0.3064     0.9004 H       
  46 H46           -4.8309    -2.0133     0.7369 H       
  47 H47           -6.4284    -2.0584     1.5223 H       
  48 H48           -7.5231    -1.5658    -0.6333 H       
  49 H49           -4.6890    -1.6485    -1.7676 H       
  50 H50           -6.1888    -1.4427    -2.7051 H       
  51 H51           -6.6737     0.6535    -1.4826 H       
  52 H52           -5.0830     0.7420    -2.2760 H       
  53 H53           -5.4664    -3.8002    -0.9357 H       
  54 H54           -6.9767    -3.9387    -0.0041 H       
  55 H55           -7.2385    -4.7591    -2.2506 H       
  56 H56           -8.1630    -3.3909    -2.0533 H       
@<TRIPOS>BOND
   1    1    2 2
   2    1    5 1
   3    1    6 1
   4    2    3 1
   5    3    4 2
   6    3   11 1
   7    4    5 1
   8    4   32 1
   9    5   33 1
  10    6    7 2
  11    6    8 am
  12    8   17 1
  13    8   34 1
  14    9   10 ar
  15    9   14 ar
  16    9   16 1
  17   10   11 ar
  18   11   12 ar
  19   12   13 ar
  20   12   35 1
  21   13   14 ar
  22   13   15 1
  23   15   36 1
  24   15   37 1
  25   15   38 1
  26   16   39 1
  27   16   40 1
  28   17   18 ar
  29   17   22 ar
  30   18   19 ar
  31   18   24 1
  32   19   20 ar
  33   19   23 1
  34   20   21 ar
  35   20   41 1
  36   21   22 ar
  37   21   42 1
  38   22   43 1
  39   24   25 1
  40   24   29 1
  41   25   26 1
  42   25   44 1
  43   25   45 1
  44   26   27 1
  45   26   46 1
  46   26   47 1
  47   27   28 1
  48   27   30 1
  49   27   48 1
  50   28   29 1
  51   28   49 1
  52   28   50 1
  53   29   51 1
  54   29   52 1
  55   30   31 1
  56   30   53 1
  57   30   54 1
  58   31   55 1
  59   31   56 1

#	End of record

