#	Name: ASD05380257
#	Creating user name:	WinNT
#	Creation time:	15. 06. 2019 20:59

#	Modifying user name:	WinNT
#	Modification time:	15. 06. 2019 20:59

#	Program:	/corina/corina34_cracker 3.40 0067  02.08.2006

@<TRIPOS>MOLECULE
ASD05380257
  57   62    0    0    0
SMALL
NO_CHARGES


@<TRIPOS>ATOM
   1 O1             0.8931     1.3133     1.7181 O.3     
   2 C2             0.2703     9.8578    -0.5719 C.ar    
   3 C3             1.3898    10.4780    -0.0335 C.ar    
   4 C4             2.4622     9.7367     0.4100 C.ar    
   5 C5             2.4253     8.3441     0.3188 C.ar    
   6 C6             1.2845     7.7163    -0.2297 C.ar    
   7 C7             0.2103     8.4848    -0.6730 C.ar    
   8 N8             3.4593     7.5757     0.7435 N.2     
   9 C9             3.4250     6.2806     0.6578 C.2     
  10 N10            2.3693     5.5929     0.1443 N.am    
  11 C11            1.2770     6.2485    -0.3127 C.2     
  12 C12            4.6154     5.4994     1.1516 C.3     
  13 C13            1.6213     3.4396     0.9418 C.ar    
  14 C14            2.4131     4.1942     0.0882 C.ar    
  15 C15            2.5041     1.4278    -0.0286 C.ar    
  16 C16            3.2922     2.1811    -0.8781 C.ar    
  17 C17            3.2492     3.5605    -0.8224 C.ar    
  18 N18            5.7874     5.8276     0.3362 N.pl3   
  19 O19            0.3251     5.6462    -0.7742 O.2     
  20 C20            4.8926     5.8613     2.6121 C.3     
  21 C21            6.8282     4.9224     0.2245 C.ar    
  22 N22            6.7805     3.7508     0.8503 N.ar    
  23 C23            7.9572     5.2180    -0.5578 C.ar    
  24 C24            8.9819     4.2593    -0.6328 C.ar    
  25 N25            8.8477     3.1171     0.0330 N.ar    
  26 C26            7.7688     2.8810     0.7495 C.ar    
  27 N27            8.3405     6.2722    -1.3175 N.2     
  28 C28            9.5065     6.0276    -1.8412 C.2     
  29 N29            9.9446     4.7978    -1.4487 N.pl3   
  30 C30            1.6671     2.0553     0.8831 C.ar    
  31 C31           -1.0086     7.8193    -1.2582 C.3     
  32 C32            0.8873    -0.1007     1.5121 C.3     
  33 C33            0.8595    -0.9953     2.7531 C.3     
  34 C34           -0.3882    -0.8627     1.8775 C.3     
  35 H35           -0.5625    10.4564    -0.9104 H       
  36 H36            1.4199    11.5552     0.0382 H       
  37 H37            3.3279    10.2304     0.8263 H       
  38 H38            4.4068     4.4323     1.0750 H       
  39 H39            0.9737     3.9297     1.6537 H       
  40 H40            2.5398     0.3493    -0.0743 H       
  41 H41            3.9428     1.6903    -1.5867 H       
  42 H42            3.8663     4.1469    -1.4871 H       
  43 H43            5.8339     6.6795    -0.1254 H       
  44 H44            3.9909     5.7021     3.2034 H       
  45 H45            5.6950     5.2316     2.9965 H       
  46 H46            5.1895     6.9081     2.6770 H       
  47 H47            7.6915     1.9427     1.2788 H       
  48 H48           10.0473     6.6997    -2.4909 H       
  49 H49           10.7834     4.3804    -1.6996 H       
  50 H50           -1.6756     7.5104    -0.4534 H       
  51 H51           -1.5276     8.5213    -1.9109 H       
  52 H52           -0.7042     6.9451    -1.8337 H       
  53 H53            1.4549    -0.4526     0.6507 H       
  54 H54            1.4085    -1.9359     2.7079 H       
  55 H55            0.8456    -0.5052     3.7266 H       
  56 H56           -1.2229    -0.2853     2.2750 H       
  57 H57           -0.6600    -1.7160     1.2563 H       
@<TRIPOS>BOND
   1    1   32 1
   2    1   30 1
   3    2    3 ar
   4    2    7 ar
   5    2   35 1
   6    3    4 ar
   7    3   36 1
   8    4    5 ar
   9    4   37 1
  10    5    6 ar
  11    5    8 1
  12    6    7 ar
  13    6   11 1
  14    7   31 1
  15    8    9 2
  16    9   10 1
  17    9   12 1
  18   10   11 am
  19   10   14 1
  20   11   19 2
  21   12   18 1
  22   12   20 1
  23   12   38 1
  24   13   14 ar
  25   13   30 ar
  26   13   39 1
  27   14   17 ar
  28   15   16 ar
  29   15   30 ar
  30   15   40 1
  31   16   17 ar
  32   16   41 1
  33   17   42 1
  34   18   21 1
  35   18   43 1
  36   20   44 1
  37   20   45 1
  38   20   46 1
  39   21   22 ar
  40   21   23 ar
  41   22   26 ar
  42   23   24 ar
  43   23   27 1
  44   24   25 ar
  45   24   29 1
  46   25   26 ar
  47   26   47 1
  48   27   28 2
  49   28   29 1
  50   28   48 1
  51   29   49 1
  52   31   50 1
  53   31   51 1
  54   31   52 1
  55   32   33 1
  56   32   34 1
  57   32   53 1
  58   33   34 1
  59   33   54 1
  60   33   55 1
  61   34   56 1
  62   34   57 1

#	End of record

