#	Name: ASD01900907
#	Creating user name:	WinNT
#	Creation time:	15. 06. 2019 19:52

#	Modifying user name:	WinNT
#	Modification time:	15. 06. 2019 19:52

#	Program:	/corina/corina34_cracker 3.40 0067  02.08.2006

@<TRIPOS>MOLECULE
ASD01900907
  40   42    0    0    0
SMALL
NO_CHARGES


@<TRIPOS>ATOM
   1 C1            -0.2224     1.2300    -0.5644 C.ar    
   2 C2            -0.2803    -0.1142    -0.9267 C.ar    
   3 C3             0.8976    -0.8389    -1.0146 C.ar    
   4 C4             2.0931    -0.1940    -0.7371 C.ar    
   5 C5             2.0761     1.1453    -0.3828 C.ar    
   6 N6             0.9435     1.8097    -0.3068 N.ar    
   7 C7            -1.4718     2.0201    -0.4720 C.2     
   8 O8            -2.5415     1.4957    -0.7116 O.2     
   9 N9            -1.4222     3.3207    -0.1221 N.am    
  10 S10           -2.6777     5.7140     0.3953 S.3     
  11 C11           -2.5937     4.0616    -0.0354 C.2     
  12 N12           -3.7827     3.6011    -0.2701 N.2     
  13 C13           -4.7874     4.4470    -0.1405 C.2     
  14 C14           -4.4305     5.6812     0.2209 C.2     
  15 C15           -6.2214     4.0515    -0.3815 C.3     
  16 F16           -6.8015     3.6432     0.8242 F       
  17 S17           -5.5218     7.0404     0.4786 S.o2    
  18 O18           -6.7136     6.4442     0.9719 O.2     
  19 O19           -4.7713     7.9461     1.2759 O.2     
  20 C20           -5.7915     7.7249    -1.1795 C.3     
  21 C21           -6.7205     8.9081    -1.0895 C.ar    
  22 C22           -6.2066    10.1794    -0.9008 C.ar    
  23 C23           -7.0611    11.2659    -0.8182 C.ar    
  24 C24           -8.4267    11.0812    -0.9240 C.ar    
  25 C25           -8.9410     9.8123    -1.1124 C.ar    
  26 C26           -8.0880     8.7251    -1.2010 C.ar    
  27 F27           -8.5906     7.4856    -1.3912 F       
  28 F28           -4.8717    10.3601    -0.7969 F       
  29 H29           -1.2297    -0.5847    -1.1357 H       
  30 H30            0.8846    -1.8824    -1.2926 H       
  31 H31            3.0285    -0.7306    -0.7961 H       
  32 H32            3.0056     1.6507    -0.1659 H       
  33 H33           -0.5684     3.7393     0.0692 H       
  34 H34           -6.7716     4.9044    -0.7790 H       
  35 H35           -6.2564     3.2308    -1.0979 H       
  36 H36           -4.8379     8.0429    -1.6009 H       
  37 H37           -6.2354     6.9624    -1.8196 H       
  38 H38           -6.6603    12.2579    -0.6706 H       
  39 H39           -9.0925    11.9291    -0.8591 H       
  40 H40          -10.0083     9.6692    -1.1945 H       
@<TRIPOS>BOND
   1    1    2 ar
   2    1    6 ar
   3    1    7 1
   4    2    3 ar
   5    2   29 1
   6    3    4 ar
   7    3   30 1
   8    4    5 ar
   9    4   31 1
  10    5    6 ar
  11    5   32 1
  12    7    8 2
  13    7    9 am
  14    9   11 1
  15    9   33 1
  16   10   11 1
  17   10   14 1
  18   11   12 2
  19   12   13 1
  20   13   14 2
  21   13   15 1
  22   14   17 1
  23   15   16 1
  24   15   34 1
  25   15   35 1
  26   17   18 2
  27   17   19 2
  28   17   20 1
  29   20   21 1
  30   20   36 1
  31   20   37 1
  32   21   22 ar
  33   21   26 ar
  34   22   23 ar
  35   22   28 1
  36   23   24 ar
  37   23   38 1
  38   24   25 ar
  39   24   39 1
  40   25   26 ar
  41   25   40 1
  42   26   27 1

#	End of record

