#	Name: ASD04880088
#	Creating user name:	WinNT
#	Creation time:	15. 06. 2019 20:52

#	Modifying user name:	WinNT
#	Modification time:	15. 06. 2019 20:52

#	Program:	/corina/corina34_cracker 3.40 0067  02.08.2006

@<TRIPOS>MOLECULE
ASD04880088
  48   50    0    0    0
SMALL
NO_CHARGES


@<TRIPOS>ATOM
   1 C1            -0.1832     1.4916    -0.5210 C.2     
   2 C2            -0.1611    -0.0151    -0.5030 C.3     
   3 O3             0.7121     2.1049    -1.0626 O.2     
   4 N4            -1.2007     2.1576     0.0601 N.am    
   5 C5            -1.1660     3.5542     0.1434 C.ar    
   6 C6            -2.3400     4.2841     0.0404 C.ar    
   7 C7            -2.3000     5.6759     0.1241 C.ar    
   8 C8            -1.0775     6.3245     0.3110 C.ar    
   9 C9             0.0852     5.5887     0.4122 C.ar    
  10 C10            0.0447     4.2088     0.3349 C.ar    
  11 C11           -3.5472     6.4615     0.0149 C.2     
  12 O12           -4.5947     5.9052    -0.2532 O.2     
  13 N13           -3.5234     7.7945     0.2123 N.am    
  14 N14           -2.3799     8.5624     0.4229 N.2     
  15 C15           -2.6127     9.8191     0.5872 C.2     
  16 C16           -4.1004    10.0732     0.4970 C.3     
  17 C17           -4.7003     8.6776     0.2345 C.3     
  18 C18           -1.5866    10.8500     0.8270 C.ar    
  19 C19           -0.2367    10.4934     0.8907 C.ar    
  20 C20            0.7210    11.4640     1.1153 C.ar    
  21 C21            0.3401    12.7946     1.2777 C.ar    
  22 C22           -0.9993    13.1489     1.2146 C.ar    
  23 C23           -1.9606    12.1866     0.9855 C.ar    
  24 O24            1.2838    13.7477     1.4989 O.3     
  25 C25            0.8240    15.0916     1.6565 C.3     
  26 O26            2.0354    11.1205     1.1782 O.3     
  27 C27            2.3538     9.7384     1.0034 C.3     
  28 H28            0.3670    -0.3602     0.3859 H       
  29 H29           -1.1832    -0.3933    -0.4882 H       
  30 H30            0.3491    -0.3816    -1.3938 H       
  31 H31           -1.9572     1.6689     0.4205 H       
  32 H32           -3.2824     3.7769    -0.1044 H       
  33 H33           -1.0422     7.4019     0.3759 H       
  34 H34            1.0298     6.0921     0.5563 H       
  35 H35            0.9576     3.6380     0.4196 H       
  36 H36           -4.4756    10.4846     1.4341 H       
  37 H37           -4.3242    10.7436    -0.3328 H       
  38 H38           -5.2157     8.6539    -0.7257 H       
  39 H39           -5.3767     8.3951     1.0411 H       
  40 H40            0.0572     9.4618     0.7650 H       
  41 H41           -1.2901    14.1813     1.3414 H       
  42 H42           -3.0025    12.4658     0.9323 H       
  43 H43            0.2983    15.4039     0.7542 H       
  44 H44            0.1469    15.1464     2.5089 H       
  45 H45            1.6763    15.7495     1.8266 H       
  46 H46            1.8602     9.1510     1.7776 H       
  47 H47            2.0114     9.4079     0.0228 H       
  48 H48            3.4328     9.6021     1.0764 H       
@<TRIPOS>BOND
   1    1    2 1
   2    1    3 2
   3    1    4 am
   4    2   28 1
   5    2   29 1
   6    2   30 1
   7    4    5 1
   8    4   31 1
   9    5    6 ar
  10    5   10 ar
  11    6    7 ar
  12    6   32 1
  13    7    8 ar
  14    7   11 1
  15    8    9 ar
  16    8   33 1
  17    9   10 ar
  18    9   34 1
  19   10   35 1
  20   11   12 2
  21   11   13 am
  22   13   14 1
  23   13   17 1
  24   14   15 2
  25   15   16 1
  26   15   18 1
  27   16   17 1
  28   16   36 1
  29   16   37 1
  30   17   38 1
  31   17   39 1
  32   18   19 ar
  33   18   23 ar
  34   19   20 ar
  35   19   40 1
  36   20   21 ar
  37   20   26 1
  38   21   22 ar
  39   21   24 1
  40   22   23 ar
  41   22   41 1
  42   23   42 1
  43   24   25 1
  44   25   43 1
  45   25   44 1
  46   25   45 1
  47   26   27 1
  48   27   46 1
  49   27   47 1
  50   27   48 1

#	End of record

