#	Name: ASD08150335
#	Creating user name:	WinNT
#	Creation time:	15. 06. 2019 21:15

#	Modifying user name:	WinNT
#	Modification time:	15. 06. 2019 21:15

#	Program:	/corina/corina34_cracker 3.40 0067  02.08.2006

@<TRIPOS>MOLECULE
ASD08150335
  51   56    0    0    0
SMALL
NO_CHARGES


@<TRIPOS>ATOM
   1 N1             0.8919     2.9248    -1.5434 N.am    
   2 C2             1.3126     2.2870    -2.6529 C.2     
   3 C3             2.5222     1.5632    -2.6569 C.2     
   4 C4             3.2840     1.4996    -1.5353 C.2     
   5 C5             2.8447     2.1699    -0.3662 C.ar    
   6 C6             3.5970     2.1363     0.8235 C.ar    
   7 N7             3.1896     2.7558     1.9004 N.ar    
   8 C8             2.0438     3.4529     1.9371 C.ar    
   9 C9             1.2230     3.5408     0.7858 C.ar    
  10 C10            1.6353     2.8812    -0.3958 C.ar    
  11 C11            0.0308     4.2698     0.8345 C.ar    
  12 C12           -0.3357     4.9003     2.0126 C.ar    
  13 C13            0.4818     4.8087     3.1479 C.ar    
  14 C14            1.6439     4.1031     3.1162 C.ar    
  15 O15            0.6377     2.3361    -3.6672 O.2     
  16 C16           -1.5984     5.6759     2.0728 C.ar    
  17 C17           -0.3109     3.6417    -1.5665 C.ar    
  18 C18           -0.3047     5.0015    -1.8495 C.ar    
  19 C19           -1.4918     5.7063    -1.8723 C.ar    
  20 C20           -2.6882     5.0583    -1.6132 C.ar    
  21 C21           -2.6965     3.7028    -1.3304 C.ar    
  22 C22           -1.5119     2.9929    -1.3122 C.ar    
  23 C23           -2.7361     5.2296     1.3818 C.ar    
  24 N24           -3.8634     5.8936     1.4170 N.ar    
  25 C25           -3.9882     7.0290     2.1124 C.ar    
  26 C26           -2.8843     7.5446     2.8373 C.ar    
  27 C27           -1.6656     6.8449     2.8171 C.ar    
  28 C28           -5.2073     7.7286     2.1377 C.ar    
  29 C29           -5.3104     8.8823     2.8523 C.ar    
  30 C30           -4.2241     9.3873     3.5642 C.ar    
  31 C31           -3.0271     8.7390     3.5638 C.ar    
  32 F32           -3.8486     5.7497    -1.6360 F       
  33 C33           -3.9996     3.0005    -1.0479 C.3     
  34 F34           -3.7541     1.6472    -0.7921 F       
  35 F35           -4.6107     3.5826     0.0679 F       
  36 F36           -4.8437     3.1198    -2.1572 F       
  37 H37            2.8438     1.0573    -3.5553 H       
  38 H38            4.2113     0.9460    -1.5335 H       
  39 H39            4.5274     1.5884     0.8471 H       
  40 H40           -0.5994     4.3411    -0.0396 H       
  41 H41            0.1846     5.3052     4.0599 H       
  42 H42            2.2613     4.0428     4.0002 H       
  43 H43            0.6280     5.5072    -2.0513 H       
  44 H44           -1.4873     6.7637    -2.0920 H       
  45 H45           -1.5193     1.9348    -1.0960 H       
  46 H46           -2.6796     4.3168     0.8073 H       
  47 H47           -0.8053     7.2101     3.3583 H       
  48 H48           -6.0594     7.3518     1.5915 H       
  49 H49           -6.2495     9.4154     2.8675 H       
  50 H50           -4.3330    10.3052     4.1227 H       
  51 H51           -2.1921     9.1399     4.1193 H       
@<TRIPOS>BOND
   1    1    2 am
   2    1   10 1
   3    1   17 1
   4    2    3 1
   5    2   15 2
   6    3    4 2
   7    3   37 1
   8    4    5 1
   9    4   38 1
  10    5    6 ar
  11    5   10 ar
  12    6    7 ar
  13    6   39 1
  14    7    8 ar
  15    8    9 ar
  16    8   14 ar
  17    9   10 ar
  18    9   11 ar
  19   11   12 ar
  20   11   40 1
  21   12   13 ar
  22   12   16 1
  23   13   14 ar
  24   13   41 1
  25   14   42 1
  26   16   23 ar
  27   16   27 ar
  28   17   18 ar
  29   17   22 ar
  30   18   19 ar
  31   18   43 1
  32   19   20 ar
  33   19   44 1
  34   20   21 ar
  35   20   32 1
  36   21   22 ar
  37   21   33 1
  38   22   45 1
  39   23   24 ar
  40   23   46 1
  41   24   25 ar
  42   25   26 ar
  43   25   28 ar
  44   26   27 ar
  45   26   31 ar
  46   27   47 1
  47   28   29 ar
  48   28   48 1
  49   29   30 ar
  50   29   49 1
  51   30   31 ar
  52   30   50 1
  53   31   51 1
  54   33   34 1
  55   33   35 1
  56   33   36 1

#	End of record

