#	Name: ASD01911307
#	Creating user name:	WinNT
#	Creation time:	15. 06. 2019 19:57

#	Modifying user name:	WinNT
#	Modification time:	15. 06. 2019 19:57

#	Program:	/corina/corina34_cracker 3.40 0067  02.08.2006

@<TRIPOS>MOLECULE
ASD01911307
  32   34    0    0    0
SMALL
NO_CHARGES


@<TRIPOS>ATOM
   1 C1            -0.0167     1.3797     0.0096 C.ar    
   2 C2             0.0021    -0.0041     0.0020 C.ar    
   3 N3             1.1339    -0.6802    -0.0085 N.ar    
   4 C4             2.3111    -0.0724    -0.0124 C.ar    
   5 C5             2.3667     1.3321    -0.0127 C.ar    
   6 C6             1.1823     2.0727     0.0019 C.ar    
   7 O7             3.4477    -0.8049    -0.0090 O.3     
   8 C8             4.6501    -0.2089    -0.4944 C.3     
   9 C9             4.8892     1.1230     0.2319 C.3     
  10 C10            3.6782     2.0005    -0.0333 C.2     
  11 O11            3.7860     3.1889    -0.2509 O.2     
  12 C12           -1.3035    -0.7567     0.0064 C.3     
  13 O13           -2.3890     0.1725     0.0184 O.3     
  14 C14           -3.6451    -0.3461     0.0237 C.ar    
  15 C15           -4.7456     0.4986     0.0354 C.ar    
  16 C16           -6.0214    -0.0311     0.0408 C.ar    
  17 C17           -6.2022    -1.4019     0.0346 C.ar    
  18 C18           -5.1070    -2.2459     0.0234 C.ar    
  19 C19           -3.8292    -1.7211     0.0117 C.ar    
  20 H20           -0.9557     1.9132     0.0170 H       
  21 H21            1.2010     3.1525     0.0067 H       
  22 H22            5.4889    -0.8797    -0.3090 H       
  23 H23            4.5593    -0.0276    -1.5654 H       
  24 H24            4.9941     0.9485     1.3027 H       
  25 H25            5.7875     1.6022    -0.1571 H       
  26 H26           -1.3674    -1.3785    -0.8866 H       
  27 H27           -1.3559    -1.3882     0.8933 H       
  28 H28           -4.6050     1.5694     0.0406 H       
  29 H29           -6.8784     0.6260     0.0503 H       
  30 H30           -7.2004    -1.8141     0.0389 H       
  31 H31           -5.2508    -3.3163     0.0193 H       
  32 H32           -2.9741    -2.3808     0.0030 H       
@<TRIPOS>BOND
   1    1    2 ar
   2    1    6 ar
   3    1   20 1
   4    2    3 ar
   5    2   12 1
   6    3    4 ar
   7    4    5 ar
   8    4    7 1
   9    5    6 ar
  10    5   10 1
  11    6   21 1
  12    7    8 1
  13    8    9 1
  14    8   22 1
  15    8   23 1
  16    9   10 1
  17    9   24 1
  18    9   25 1
  19   10   11 2
  20   12   13 1
  21   12   26 1
  22   12   27 1
  23   13   14 1
  24   14   15 ar
  25   14   19 ar
  26   15   16 ar
  27   15   28 1
  28   16   17 ar
  29   16   29 1
  30   17   18 ar
  31   17   30 1
  32   18   19 ar
  33   18   31 1
  34   19   32 1

#	End of record

