#	Name: ASD00431355
#	Creating user name:	WinNT
#	Creation time:	15. 06. 2019 18:35

#	Modifying user name:	WinNT
#	Modification time:	15. 06. 2019 18:35

#	Program:	/corina/corina34_cracker 3.40 0067  02.08.2006

@<TRIPOS>MOLECULE
ASD00431355
  27   28    0    0    0
SMALL
NO_CHARGES


@<TRIPOS>ATOM
   1 S1            -1.8436     1.4547     1.3481 S.3     
   2 C2            -1.3531    -0.1748     1.1863 C.2     
   3 N3            -1.2596    -0.7365     2.3534 N.2     
   4 C4            -1.5427     0.0041     3.3995 C.2     
   5 C5            -1.8993     1.2761     3.1000 C.2     
   6 C6            -2.2664     2.3188     4.0625 C.2     
   7 O7            -1.0986    -0.7921     0.0087 O.3     
   8 C8            -0.8208    -2.1228     0.0326 C.ar    
   9 C9            -1.8446    -3.0421     0.2097 C.ar    
  10 C10           -1.5624    -4.3939     0.2340 C.ar    
  11 C11           -0.2553    -4.8324     0.0813 C.ar    
  12 C12            0.7684    -3.9133    -0.0958 C.ar    
  13 C13            0.4856    -2.5618    -0.1259 C.ar    
  14 O14            0.0225    -6.1632     0.1057 O.3     
  15 C15            1.3903    -6.5435    -0.0578 C.3     
  16 N16           -2.5904     3.5037     3.6435 N.2     
  17 O17           -2.9450     4.5111     4.5734 O.3     
  18 H18           -1.4960    -0.3688     4.4120 H       
  19 H19           -2.2672     2.1011     5.1203 H       
  20 H20           -2.8623    -2.7007     0.3290 H       
  21 H21           -2.3594    -5.1095     0.3723 H       
  22 H22            1.7861    -4.2548    -0.2144 H       
  23 H23            1.2821    -1.8464    -0.2683 H       
  24 H24            1.7542    -6.1859    -1.0210 H       
  25 H25            1.9873    -6.1049     0.7418 H       
  26 H26            1.4725    -7.6297    -0.0188 H       
  27 H27           -3.1704     5.3593     4.1674 H       
@<TRIPOS>BOND
   1    1    2 1
   2    1    5 1
   3    2    3 2
   4    2    7 1
   5    3    4 1
   6    4    5 2
   7    4   18 1
   8    5    6 1
   9    6   16 2
  10    6   19 1
  11    7    8 1
  12    8    9 ar
  13    8   13 ar
  14    9   10 ar
  15    9   20 1
  16   10   11 ar
  17   10   21 1
  18   11   12 ar
  19   11   14 1
  20   12   13 ar
  21   12   22 1
  22   13   23 1
  23   14   15 1
  24   15   24 1
  25   15   25 1
  26   15   26 1
  27   16   17 1
  28   17   27 1

#	End of record

