#	Name: ASD01140501
#	Creating user name:	WinNT
#	Creation time:	15. 06. 2019 19:01

#	Modifying user name:	WinNT
#	Modification time:	15. 06. 2019 19:01

#	Program:	/corina/corina34_cracker 3.40 0067  02.08.2006

@<TRIPOS>MOLECULE
ASD01140501
  35   38    0    0    0
SMALL
NO_CHARGES


@<TRIPOS>ATOM
   1 C1            -0.0168     1.3868     0.0097 C.ar    
   2 C2             0.0021    -0.0041     0.0020 C.ar    
   3 C3             1.2099    -0.6712    -0.0131 C.ar    
   4 C4             2.3988     0.0401    -0.0207 C.ar    
   5 C5             2.3931     1.4197    -0.0132 C.ar    
   6 C6             1.1869     2.1111     0.0021 C.ar    
   7 C7            -1.2855     2.1397     0.0196 C.2     
   8 N8             1.1736     3.4952     0.0092 N.pl3   
   9 C9             0.0404     4.2155     0.0238 C.2     
  10 N10           -3.3490     2.9738     0.0339 N.am    
  11 N11           -2.5497     1.8280     0.0242 N.2     
  12 C12           -1.1953     3.6176     0.0268 C.2     
  13 C13           -2.5786     4.0831     0.0358 C.2     
  14 C14           -4.7503     2.9724     0.0399 C.ar    
  15 C15           -5.4438     1.7691     0.0369 C.ar    
  16 C16           -6.8245     1.7685     0.0428 C.ar    
  17 C17           -7.5190     2.9695     0.0513 C.ar    
  18 C18           -6.8269     4.1719     0.0544 C.ar    
  19 C19           -5.4462     4.1741     0.0547 C.ar    
  20 O20           -2.9620     5.2416     0.0430 O.2     
  21 O21           -8.8786     2.9681     0.0563 O.3     
  22 C22           -9.5286     4.2406     0.0650 C.3     
  23 H23           -0.9243    -0.5592     0.0082 H       
  24 H24            1.2285    -1.7511    -0.0187 H       
  25 H25            3.3393    -0.4906    -0.0321 H       
  26 H26            3.3264     1.9631    -0.0192 H       
  27 H27            2.0214     3.9663     0.0036 H       
  28 H28            0.1028     5.2937     0.0294 H       
  29 H29           -4.9033     0.8342     0.0295 H       
  30 H30           -7.3639     0.8329     0.0404 H       
  31 H31           -7.3683     5.1064     0.0607 H       
  32 H32           -4.9076     5.1102     0.0619 H       
  33 H33           -9.2331     4.7935     0.9567 H       
  34 H34           -9.2396     4.8024    -0.8232 H       
  35 H35          -10.6091     4.0967     0.0682 H       
@<TRIPOS>BOND
   1    1    2 ar
   2    1    6 ar
   3    1    7 1
   4    2    3 ar
   5    2   23 1
   6    3    4 ar
   7    3   24 1
   8    4    5 ar
   9    4   25 1
  10    5    6 ar
  11    5   26 1
  12    6    8 1
  13    7   12 1
  14    7   11 2
  15    8    9 1
  16    8   27 1
  17    9   12 2
  18    9   28 1
  19   10   11 1
  20   10   13 am
  21   10   14 1
  22   12   13 1
  23   13   20 2
  24   14   15 ar
  25   14   19 ar
  26   15   16 ar
  27   15   29 1
  28   16   17 ar
  29   16   30 1
  30   17   18 ar
  31   17   21 1
  32   18   19 ar
  33   18   31 1
  34   19   32 1
  35   21   22 1
  36   22   33 1
  37   22   34 1
  38   22   35 1

#	End of record

