#	Name: ASD03090844
#	Creating user name:	WinNT
#	Creation time:	15. 06. 2019 20:29

#	Modifying user name:	WinNT
#	Modification time:	15. 06. 2019 20:29

#	Program:	/corina/corina34_cracker 3.40 0067  02.08.2006

@<TRIPOS>MOLECULE
ASD03090844
  43   46    0    0    0
SMALL
NO_CHARGES


@<TRIPOS>ATOM
   1 C1             0.0271     1.4552     0.0103 C.ar    
   2 C2             0.0661     0.0762    -0.0090 C.ar    
   3 C3             1.2962    -0.5840    -0.0242 C.ar    
   4 C4             2.4795     0.1576    -0.0197 C.ar    
   5 C5             2.4259     1.5357    -0.0004 C.ar    
   6 C6             1.2031     2.1836     0.0146 C.ar    
   7 S7            -1.5243     2.2905     0.0220 S.o2    
   8 O8            -1.2851     3.5886    -0.5043 O.2     
   9 O9            -2.4702     1.3882    -0.5350 O.2     
  10 N10           -1.9558     2.5008     1.6069 N.am    
  11 S11           -4.2837     3.7654     0.7832 S.3     
  12 C12           -3.0806     3.1024     1.9053 C.2     
  13 N13           -3.5865     3.3580     3.1528 N.pl3   
  14 C14           -4.7882     4.0044     3.2039 C.2     
  15 C15           -5.3707     4.3334     2.0632 C.2     
  16 O16           -0.9103     1.8619     7.7634 O.3     
  17 C17            0.0312     0.7885     7.6579 C.3     
  18 C18            0.9054     1.0362     6.4211 C.3     
  19 O19            0.0530     1.0810     5.2717 O.3     
  20 C20           -1.0770     1.8326     5.3768 C.ar    
  21 C21           -1.5600     2.2208     6.6214 C.ar    
  22 C22           -1.7504     2.2108     4.2260 C.ar    
  23 C23           -2.9056     2.9751     4.3168 C.ar    
  24 C24           -3.3863     3.3597     5.5609 C.ar    
  25 C25           -2.7153     2.9829     6.7084 C.ar    
  26 F26            1.5797     2.2545     6.5563 F       
  27 F27            1.8312    -0.0034     6.2818 F       
  28 F28            0.8338     0.7505     8.8032 F       
  29 F29           -0.6506    -0.4252     7.5183 F       
  30 C30           -6.6876     5.0448     1.8875 C.3     
  31 C31            1.3443    -2.0150    -0.0438 C.1     
  32 N32            1.3824    -3.1503    -0.0593 N.1     
  33 H33           -0.8528    -0.4913    -0.0120 H       
  34 H34            3.4344    -0.3467    -0.0310 H       
  35 H35            3.3402     2.1105     0.0035 H       
  36 H36            1.1669     3.2629     0.0298 H       
  37 H37           -5.2509     4.2403     4.1508 H       
  38 H38           -1.3756     1.9117     3.2582 H       
  39 H39           -4.2856     3.9536     5.6319 H       
  40 H40           -3.0912     3.2829     7.6753 H       
  41 H41           -6.8941     5.1698     0.8246 H       
  42 H42           -7.4825     4.4561     2.3453 H       
  43 H43           -6.6386     6.0231     2.3657 H       
@<TRIPOS>BOND
   1    1    2 ar
   2    1    6 ar
   3    1    7 1
   4    2    3 ar
   5    2   33 1
   6    3    4 ar
   7    3   31 1
   8    4    5 ar
   9    4   34 1
  10    5    6 ar
  11    5   35 1
  12    6   36 1
  13    7    8 2
  14    7    9 2
  15    7   10 am
  16   10   12 2
  17   11   12 1
  18   11   15 1
  19   12   13 1
  20   13   14 1
  21   13   23 1
  22   14   15 2
  23   14   37 1
  24   15   30 1
  25   16   17 1
  26   16   21 1
  27   17   18 1
  28   17   28 1
  29   17   29 1
  30   18   19 1
  31   18   26 1
  32   18   27 1
  33   19   20 1
  34   20   21 ar
  35   20   22 ar
  36   21   25 ar
  37   22   23 ar
  38   22   38 1
  39   23   24 ar
  40   24   25 ar
  41   24   39 1
  42   25   40 1
  43   30   41 1
  44   30   42 1
  45   30   43 1
  46   31   32 3

#	End of record

