#	Name: ASD03130003
#	Creating user name:	WinNT
#	Creation time:	15. 06. 2019 20:33

#	Modifying user name:	WinNT
#	Modification time:	15. 06. 2019 20:33

#	Program:	/corina/corina34_cracker 3.40 0067  02.08.2006

@<TRIPOS>MOLECULE
ASD03130003
 352  353    0    0    0
SMALL
NO_CHARGES


@<TRIPOS>ATOM
   1 N1            27.8802    -0.8613    17.4882 N.am    
   2 C2            17.7947   -57.3380     4.3028 C.2     
   3 O3            17.6122   -58.3426     3.6575 O.2     
   4 C4            18.9642   -57.2526     5.2493 C.3     
   5 C5            19.7547   -58.5617     5.2028 C.3     
   6 C6            20.9421   -58.4749     6.1638 C.3     
   7 C7            21.7325   -59.7841     6.1173 C.3     
   8 C8            22.9199   -59.6973     7.0782 C.3     
   9 C9            23.7104   -61.0065     7.0318 C.3     
  10 C10           24.8978   -60.9197     7.9927 C.3     
  11 C11           25.6882   -62.2289     7.9462 C.3     
  12 C12           26.8757   -62.1421     8.9072 C.3     
  13 C13           27.6661   -63.4513     8.8607 C.3     
  14 C14           28.8535   -63.3645     9.8217 C.3     
  15 C15           29.6439   -64.6737     9.7752 C.3     
  16 C16           30.8314   -64.5869    10.7361 C.3     
  17 C17           31.6218   -65.8961    10.6896 C.3     
  18 C18           32.8092   -65.8093    11.6506 C.3     
  19 C19           15.6961   -56.2715     3.2168 C.3     
  20 C20           16.8657   -56.1861     4.1633 C.2     
  21 N21           14.6974   -55.2572     3.5797 N.3     
  22 O22           17.0482   -55.1815     4.8086 O.2     
  23 C23           14.2162   -55.1679     0.4892 C.ar    
  24 C24           13.1669   -55.3569    -0.3907 C.ar    
  25 C25           12.9359   -56.6076    -0.9324 C.ar    
  26 C26           13.7545   -57.6691    -0.5946 C.ar    
  27 C27           14.8034   -57.4802     0.2856 C.ar    
  28 C28           15.0344   -56.2295     0.8274 C.ar    
  29 C29           16.1786   -56.0234     1.7862 C.3     
  30 C30           14.1913   -52.4576     5.0217 C.3     
  31 C31           14.1583   -52.9095     3.5603 C.3     
  32 C32           14.4012   -51.7239     2.6623 C.2     
  33 N33           15.2040   -53.9164     3.3355 N.3     
  34 O34           15.3518   -51.7183     1.9092 O.2     
  35 C35           13.8276   -53.6162     5.9141 C.2     
  36 N36           14.6969   -54.4700     6.5378 N.pl3   
  37 C37           13.9546   -55.3567     7.2352 C.2     
  38 N38           12.6924   -55.0756     7.0593 N.2     
  39 C39           12.5850   -54.0070     6.2559 C.2     
  40 C40           13.1763   -49.7813     0.4504 C.3     
  41 C41           13.7981   -49.5172     1.8232 C.3     
  42 C42           13.1703   -48.2895     2.4312 C.2     
  43 N43           13.5620   -50.6698     2.6962 N.am    
  44 O44           12.2167   -48.3990     3.1644 O.2     
  45 C45           11.6670   -49.9800     0.6039 C.3     
  46 C46           13.4427   -48.5873    -0.4684 C.3     
  47 C47           16.1272   -42.7620     3.4942 C.3     
  48 C48           14.6895   -42.3117     3.2272 C.3     
  49 C49           13.7633   -43.4951     3.3401 C.2     
  50 N50           14.3045   -41.2927     4.2127 N.3     
  51 O51           12.8704   -43.4902     4.1608 O.2     
  52 C52           16.2268   -43.3235     4.8891 C.2     
  53 N53           17.3743   -43.8952     5.3050 N.am    
  54 O54           15.2744   -43.2611     5.6374 O.2     
  55 C55           15.2655   -38.7125     5.8229 C.3     
  56 C56           14.2405   -38.9364     4.7093 C.3     
  57 C57           14.0309   -37.6497     3.9534 C.2     
  58 N58           14.7345   -39.9698     3.7896 N.3     
  59 O59           14.2696   -37.5985     2.7654 O.2     
  60 C60           15.3861   -39.9823     6.6679 C.3     
  61 C61           16.4987   -39.8026     7.7027 C.3     
  62 C62           14.0604   -40.2456     7.3850 C.3     
  63 C63           11.9896   -35.3151     3.2124 C.3     
  64 C64           13.3745   -35.3049     3.8626 C.3     
  65 C65           13.4738   -34.1410     4.8148 C.2     
  66 N66           13.5782   -36.5557     4.5975 N.am    
  67 O67           13.6932   -34.3371     5.9914 O.2     
  68 O68           10.9859   -35.3238     4.2296 O.3     
  69 C69           14.8833   -31.3529     5.4521 C.3     
  70 C70           13.4155   -31.7508     5.2844 C.3     
  71 C71           12.6383   -30.5831     4.7333 C.2     
  72 N72           13.3189   -32.8822     4.3588 N.am    
  73 O73           12.0607   -30.6860     3.6718 O.2     
  74 C74           15.6472   -32.4941     6.1267 C.3     
  75 C75           17.0929   -32.1022     6.2919 C.2     
  76 O76           17.4747   -31.0170     5.9079 O.2     
  77 N77           17.9616   -32.9577     6.8664 N.am    
  78 C78           10.3584   -28.4228     5.2820 C.3     
  79 C79           11.8298   -28.2895     4.8841 C.3     
  80 C80           12.3872   -27.0061     5.4437 C.2     
  81 N81           12.5853   -29.4246     5.4199 N.am    
  82 O82           13.2763   -27.0395     6.2679 O.2     
  83 C83            9.7699   -29.6830     4.6446 C.3     
  84 C84           10.2489   -28.5227     6.8048 C.3     
  85 C85           13.7025   -24.2290     4.5926 C.3     
  86 C86           12.5112   -24.5730     5.4889 C.3     
  87 C87           11.4963   -23.4608     5.4244 C.2     
  88 N88           11.8977   -25.8211     5.0281 N.am    
  89 O89           10.3715   -23.6882     5.0322 O.2     
  90 C90           14.7867   -25.2965     4.7535 C.3     
  91 C91           15.9602   -24.9576     3.8708 C.2     
  92 O92           15.9321   -23.9643     3.1834 O.2     
  93 O93           17.0365   -25.7594     3.8480 O.3     
  94 C94           10.0137   -21.1320     7.0196 C.3     
  95 C95           10.8523   -21.1321     5.7399 C.3     
  96 C96           11.5635   -19.8103     5.6053 C.2     
  97 N97           11.8388   -22.2133     5.8026 N.am    
  98 O98           12.7752   -19.7750     5.5656 O.2     
  99 C99            9.1955   -22.4227     7.0933 C.3     
 100 C100           8.3695   -22.4226     8.3538 C.2     
 101 O101           8.4294   -21.4827     9.1180 O.2     
 102 N102           7.5643   -23.4669     8.6319 N.am    
 103 C103          10.6935   -16.3544     4.7508 C.3     
 104 C104          11.5438   -17.3757     5.5090 C.3     
 105 C105          11.7593   -16.8994     6.9224 C.2     
 106 N106          10.8532   -18.6675     5.5289 N.am    
 107 O107          11.3740   -17.5728     7.8546 O.2     
 108 C108          10.5865   -16.7646     3.3046 C.2     
 109 O109          11.2167   -17.7115     2.8971 O.2     
 110 O110           9.7912   -16.0779     2.4694 O.3     
 111 C111          12.5898   -15.2623     8.5247 C.3     
 112 C112          13.3003   -13.9334     8.5042 C.2     
 113 N113          12.3803   -15.7252     7.1506 N.am    
 114 O114          13.6019   -13.4233     7.4460 O.2     
 115 C115          13.2663   -10.8963     9.4744 C.3     
 116 C116          14.2911   -12.0200     9.6418 C.3     
 117 C117          15.0381   -11.8297    10.9367 C.2     
 118 N118          13.6004   -13.3118     9.6617 N.am    
 119 O119          14.9975   -12.6886    11.7921 O.2     
 120 N120          10.9283   -10.0105     6.6256 N.pl3   
 121 C121           9.9656    -9.1042     6.2489 C.2     
 122 N122           9.6244    -8.1415     7.0586 N.2     
 123 N123           9.3628    -9.2134     5.0181 N.pl3   
 124 C124          12.5954   -11.0178     8.1046 C.3     
 125 C125          11.5706    -9.8942     7.9372 C.3     
 126 C126          17.8468   -11.1953    12.3060 C.3     
 127 C127          16.4773   -10.5200    12.4032 C.3     
 128 C128          16.6609    -9.0475    12.6655 C.2     
 129 N129          15.7512   -10.7050    11.1444 N.am    
 130 O130          16.2277    -8.2327    11.8785 O.2     
 131 O131          18.6348   -10.5337    11.3143 O.3     
 132 C132          17.6649   -12.6637    11.9167 C.3     
 133 C133          16.4907    -6.6041    14.8648 C.3     
 134 C134          17.5793    -7.2108    13.9772 C.3     
 135 C135          18.9207    -7.0461    14.6439 C.2     
 136 N136          17.3063    -8.6359    13.7748 N.am    
 137 O137          19.5484    -8.0232    14.9933 O.2     
 138 C138          15.1593    -6.6039    14.1109 C.3     
 139 C139          16.3531    -7.4343    16.1426 C.3     
 140 C140          17.6085    -7.2623    17.0002 C.3     
 141 C141          20.7730    -5.6542    15.3982 C.3     
 142 C142          21.0914    -4.1873    15.5326 C.2     
 143 N143          19.4230    -5.8128    14.8518 N.am    
 144 O144          20.2713    -3.3562    15.2044 O.2     
 145 C145          21.9655    -1.9629    17.6008 C.3     
 146 C146          22.5565    -2.3782    16.2520 C.3     
 147 C147          24.0451    -2.1439    16.2624 C.2     
 148 N148          22.2874    -3.7990    16.0177 N.am    
 149 O149          24.8030    -3.0677    16.4699 O.2     
 150 C150          22.6783    -2.7182    18.7243 C.3     
 151 C151          22.1543    -0.4575    17.7985 C.3     
 152 C152          21.2972     0.3017    16.7836 C.3     
 153 C153          26.2456     0.5550    15.0852 C.3     
 154 C154          25.9794    -0.7038    15.9131 C.3     
 155 C155          26.5870    -0.5420    17.2827 C.2     
 156 N156          24.5343    -0.9077    16.0410 N.am    
 157 O157          25.9123    -0.1246    18.2000 O.2     
 158 C158          25.6872     1.7758    15.8192 C.3     
 159 C159          27.7530     0.7251    14.8860 C.3     
 160 C160          28.0137     1.9101    13.9540 C.3     
 161 C161          11.7689   -45.4538     1.8065 C.3     
 162 C162          13.0269   -45.7095     2.6390 C.3     
 163 C163          13.7247   -46.9439     2.1288 C.2     
 164 N164          13.9273   -44.5590     2.5291 N.am    
 165 O165          14.7344   -46.8399     1.4741 O.2     
 166 C166          10.9947   -44.2757     2.4009 C.3     
 167 C167           9.7556   -44.0239     1.5809 C.2     
 168 O168           9.5155   -44.7184     0.6161 O.2     
 169 N169           8.9144   -43.0269     1.9198 N.am    
 170 H170          28.3998    -1.2631    16.7745 H       
 171 H171          28.2923    -0.6855    18.3485 H       
 172 H172          19.6113   -56.4267     4.9536 H       
 173 H173          18.6000   -57.0839     6.2627 H       
 174 H174          19.1076   -59.3875     5.4985 H       
 175 H175          20.1190   -58.7304     4.1894 H       
 176 H176          21.5892   -57.6491     5.8681 H       
 177 H177          20.5778   -58.3062     7.1771 H       
 178 H178          21.0854   -60.6099     6.4130 H       
 179 H179          22.0968   -59.9528     5.1039 H       
 180 H180          23.5670   -58.8715     6.7826 H       
 181 H181          22.5557   -59.5286     8.0916 H       
 182 H182          23.0633   -61.8323     7.3274 H       
 183 H183          24.0747   -61.1752     6.0184 H       
 184 H184          25.5449   -60.0939     7.6970 H       
 185 H185          24.5335   -60.7510     9.0061 H       
 186 H186          25.0412   -63.0547     8.2419 H       
 187 H187          26.0525   -62.3976     6.9328 H       
 188 H188          27.5227   -61.3163     8.6115 H       
 189 H189          26.5114   -61.9734     9.9206 H       
 190 H190          27.0190   -64.2771     9.1564 H       
 191 H191          28.0304   -63.6200     7.8473 H       
 192 H192          29.5006   -62.5387     9.5260 H       
 193 H193          28.4892   -63.1958    10.8350 H       
 194 H194          28.9969   -65.4995    10.0708 H       
 195 H195          30.0082   -64.8424     8.7618 H       
 196 H196          31.4784   -63.7611    10.4405 H       
 197 H197          30.4671   -64.4182    11.7495 H       
 198 H198          30.9747   -66.7219    10.9853 H       
 199 H199          31.9861   -66.0648     9.6763 H       
 200 H200          33.3723   -66.7420    11.6175 H       
 201 H201          33.4563   -64.9835    11.3549 H       
 202 H202          32.4449   -65.6406    12.6640 H       
 203 H203          15.2476   -57.2628     3.2821 H       
 204 H204          13.8302   -55.4113     3.0874 H       
 205 H205          14.3994   -54.1899     0.9090 H       
 206 H206          12.5274   -54.5276    -0.6546 H       
 207 H207          12.1157   -56.7554    -1.6193 H       
 208 H208          13.5736   -58.6463    -1.0173 H       
 209 H209          15.4427   -58.3096     0.5498 H       
 210 H210          16.5461   -55.0009     1.6990 H       
 211 H211          16.9824   -56.7199     1.5479 H       
 212 H212          15.1928   -52.1072     5.2712 H       
 213 H213          13.4762   -51.6480     5.1679 H       
 214 H214          13.1833   -53.3418     3.3356 H       
 215 H215          16.0160   -53.7276     3.9039 H       
 216 H216          15.6652   -54.4431     6.4882 H       
 217 H217          14.3414   -56.1648     7.8383 H       
 218 H218          11.6634   -53.5429     5.9369 H       
 219 H219          13.6187   -50.6786     0.0177 H       
 220 H220          14.8709   -49.3595     1.7119 H       
 221 H221          12.8018   -50.6742     3.2986 H       
 222 H222          11.2240   -50.1681    -0.3741 H       
 223 H223          11.4772   -50.8306     1.2585 H       
 224 H224          11.2246   -49.0827     1.0366 H       
 225 H225          14.5157   -48.4029    -0.5226 H       
 226 H226          13.0605   -48.8041    -1.4659 H       
 227 H227          12.9419   -47.7044    -0.0713 H       
 228 H228          16.4075   -43.5294     2.7727 H       
 229 H229          16.7990   -41.9091     3.3970 H       
 230 H230          14.6209   -41.8911     2.2239 H       
 231 H231          13.3102   -41.3123     4.3835 H       
 232 H232          18.1360   -43.9451     4.7066 H       
 233 H233          17.4384   -44.2566     6.2029 H       
 234 H234          16.2342   -38.4756     5.3829 H       
 235 H235          14.9412   -37.8854     6.4544 H       
 236 H236          13.2952   -39.2598     5.1452 H       
 237 H237          15.7389   -39.9266     3.7029 H       
 238 H238          15.6238   -40.8274     6.0219 H       
 239 H239          16.2610   -38.9575     8.3487 H       
 240 H240          16.5846   -40.7072     8.3046 H       
 241 H241          17.4432   -39.6151     7.1918 H       
 242 H242          13.8227   -39.4005     8.0310 H       
 243 H243          13.2678   -40.3736     6.6478 H       
 244 H244          14.1463   -41.1502     7.9869 H       
 245 H245          11.8721   -34.4255     2.5937 H       
 246 H246          11.8860   -36.2054     2.5922 H       
 247 H247          14.1377   -35.2087     3.0904 H       
 248 H248          13.3873   -36.5967     5.5477 H       
 249 H249          10.0809   -35.3305     3.8891 H       
 250 H250          15.3195   -31.1523     4.4735 H       
 251 H251          14.9486   -30.4570     6.0696 H       
 252 H252          13.0037   -32.0369     6.2522 H       
 253 H253          13.1435   -32.7254     3.4178 H       
 254 H254          15.2110   -32.6947     7.1053 H       
 255 H255          15.5818   -33.3900     5.5093 H       
 256 H256          17.6562   -33.8256     7.1736 H       
 257 H257          18.8921   -32.7054     6.9728 H       
 258 H258           9.8075   -27.5487     4.9347 H       
 259 H259          11.9127   -28.2784     3.7974 H       
 260 H260          13.0473   -29.3424     6.2689 H       
 261 H261           8.6990   -29.7247     4.8436 H       
 262 H262           9.9386   -29.6583     3.5680 H       
 263 H263          10.2527   -30.5638     5.0679 H       
 264 H264          10.7998   -29.3968     7.1521 H       
 265 H265          10.6682   -27.6249     7.2589 H       
 266 H266           9.2007   -28.6177     7.0883 H       
 267 H267          13.3772   -24.1954     3.5529 H       
 268 H268          14.1041   -23.2571     4.8793 H       
 269 H269          12.8528   -24.6940     6.5169 H       
 270 H270          11.1393   -25.7946     4.4240 H       
 271 H271          15.1121   -25.3301     5.7933 H       
 272 H272          14.3851   -26.2684     4.4669 H       
 273 H273          17.7643   -25.5008     3.2662 H       
 274 H274          10.6726   -21.0695     7.8857 H       
 275 H275           9.3404   -20.2748     7.0127 H       
 276 H276          10.2013   -21.2837     4.8789 H       
 277 H277          12.7385   -22.0314     6.1163 H       
 278 H278           8.5367   -22.4852     6.2272 H       
 279 H279           9.8688   -23.2798     7.1002 H       
 280 H280           7.5164   -24.2187     8.0207 H       
 281 H281           7.0327   -23.4669     9.4433 H       
 282 H282           9.6973   -16.3126     5.1912 H       
 283 H283          11.1612   -15.3721     4.8162 H       
 284 H284          12.5076   -17.4866     5.0120 H       
 285 H285           9.8846   -18.7004     5.4872 H       
 286 H286           9.7552   -16.3786     1.5510 H       
 287 H287          13.1956   -15.9898     9.0648 H       
 288 H288          11.6261   -15.1514     9.0216 H       
 289 H289          12.6885   -15.1867     6.4050 H       
 290 H290          12.5113   -10.9735    10.2568 H       
 291 H291          13.7690    -9.9320     9.5484 H       
 292 H292          14.9947   -11.9969     8.8097 H       
 293 H293          13.3592   -13.7198    10.5081 H       
 294 H294          11.1823   -10.7270     6.0231 H       
 295 H295           8.9451    -7.5020     6.7927 H       
 296 H296           9.6168    -9.9299     4.4155 H       
 297 H297           8.6836    -8.5740     4.7522 H       
 298 H298          13.3504   -10.9406     7.3222 H       
 299 H299          12.0927   -11.9821     8.0305 H       
 300 H300          12.0734    -8.9299     8.0113 H       
 301 H301          10.8157    -9.9714     8.7196 H       
 302 H302          18.3510   -11.1349    13.2704 H       
 303 H303          15.9093   -10.9665    13.2194 H       
 304 H304          15.7836   -10.0181    10.4603 H       
 305 H305          18.2460   -10.5482    10.4290 H       
 306 H306          17.1607   -12.7242    10.9522 H       
 307 H307          18.6405   -13.1448    11.8474 H       
 308 H308          17.0639   -13.1684    12.6732 H       
 309 H309          16.7617    -5.5806    15.1239 H       
 310 H310          17.5876    -6.7020    13.0133 H       
 311 H311          17.5902    -9.2832    14.4391 H       
 312 H312          14.9138    -7.6215    13.8070 H       
 313 H313          14.3736    -6.2194    14.7613 H       
 314 H314          15.2421    -5.9708    13.2276 H       
 315 H315          15.4813    -7.0968    16.7031 H       
 316 H316          16.2326    -8.4857    15.8817 H       
 317 H317          17.8486    -6.2024    17.0844 H       
 318 H318          17.4293    -7.6742    17.9933 H       
 319 H319          18.4419    -7.7877    16.5338 H       
 320 H320          21.4936    -6.1224    14.7277 H       
 321 H321          20.8265    -6.1289    16.3779 H       
 322 H322          18.8906    -5.0302    14.6396 H       
 323 H323          20.9020    -2.2013    17.6204 H       
 324 H324          22.1010    -1.7863    15.4581 H       
 325 H325          22.9700    -4.4604    16.2116 H       
 326 H326          23.7518    -2.5417    18.6566 H       
 327 H327          22.3122    -2.3655    19.6885 H       
 328 H328          22.4788    -3.7854    18.6282 H       
 329 H329          21.8501    -0.1827    18.8085 H       
 330 H330          23.2034    -0.2006    17.6524 H       
 331 H331          21.6629     0.1006    15.7766 H       
 332 H332          20.2609    -0.0259    16.8659 H       
 333 H333          21.3573     1.3712    16.9851 H       
 334 H334          25.7591     0.4609    14.1143 H       
 335 H335          26.4255    -1.5659    15.4173 H       
 336 H336          23.9295    -0.1530    15.9663 H       
 337 H337          24.6133     1.6546    15.9612 H       
 338 H338          26.1737     1.8698    16.7901 H       
 339 H339          25.8768     2.6725    15.2294 H       
 340 H340          28.2283     0.9091    15.8494 H       
 341 H341          28.1658    -0.1820    14.4445 H       
 342 H342          29.0876     2.0313    13.8121 H       
 343 H343          27.5384     1.7261    12.9905 H       
 344 H344          27.6009     2.8172    14.3955 H       
 345 H345          12.0534   -45.2210     0.7803 H       
 346 H346          11.1399   -46.3439     1.8160 H       
 347 H347          12.7486   -45.8546     3.6828 H       
 348 H348          14.6415   -44.5630     1.8727 H       
 349 H349          10.7102   -44.5085     3.4270 H       
 350 H350          11.6238   -43.3856     2.3913 H       
 351 H351           9.1064   -42.4715     2.6914 H       
 352 H352           8.1168   -42.8649     1.3920 H       
@<TRIPOS>BOND
   1    1  155 am
   2    1  170 1
   3    1  171 1
   4    2   20 1
   5    2    3 2
   6    2    4 1
   7    4    5 1
   8    4  172 1
   9    4  173 1
  10    5    6 1
  11    5  174 1
  12    5  175 1
  13    6    7 1
  14    6  176 1
  15    6  177 1
  16    7    8 1
  17    7  178 1
  18    7  179 1
  19    8    9 1
  20    8  180 1
  21    8  181 1
  22    9   10 1
  23    9  182 1
  24    9  183 1
  25   10   11 1
  26   10  184 1
  27   10  185 1
  28   11   12 1
  29   11  186 1
  30   11  187 1
  31   12   13 1
  32   12  188 1
  33   12  189 1
  34   13   14 1
  35   13  190 1
  36   13  191 1
  37   14   15 1
  38   14  192 1
  39   14  193 1
  40   15   16 1
  41   15  194 1
  42   15  195 1
  43   16   17 1
  44   16  196 1
  45   16  197 1
  46   17   18 1
  47   17  198 1
  48   17  199 1
  49   18  200 1
  50   18  201 1
  51   18  202 1
  52   19   20 1
  53   19   21 1
  54   19   29 1
  55   19  203 1
  56   20   22 2
  57   21   33 1
  58   21  204 1
  59   23   24 ar
  60   23   28 ar
  61   23  205 1
  62   24   25 ar
  63   24  206 1
  64   25   26 ar
  65   25  207 1
  66   26   27 ar
  67   26  208 1
  68   27   28 ar
  69   27  209 1
  70   28   29 1
  71   29  210 1
  72   29  211 1
  73   30   35 1
  74   30   31 1
  75   30  212 1
  76   30  213 1
  77   31   32 1
  78   31   33 1
  79   31  214 1
  80   32   34 2
  81   32   43 am
  82   33  215 1
  83   35   36 1
  84   35   39 2
  85   36   37 1
  86   36  216 1
  87   37   38 2
  88   37  217 1
  89   38   39 1
  90   39  218 1
  91   40   45 1
  92   40   46 1
  93   40   41 1
  94   40  219 1
  95   41   43 1
  96   41   42 1
  97   41  220 1
  98   42   44 2
  99   42  163 1
 100   43  221 1
 101   45  222 1
 102   45  223 1
 103   45  224 1
 104   46  225 1
 105   46  226 1
 106   46  227 1
 107   47   52 1
 108   47   48 1
 109   47  228 1
 110   47  229 1
 111   48   50 1
 112   48   49 1
 113   48  230 1
 114   49   51 2
 115   49  164 am
 116   50   58 1
 117   50  231 1
 118   52   53 am
 119   52   54 2
 120   53  232 1
 121   53  233 1
 122   55   60 1
 123   55   56 1
 124   55  234 1
 125   55  235 1
 126   56   58 1
 127   56   57 1
 128   56  236 1
 129   57   59 2
 130   57   66 am
 131   58  237 1
 132   60   61 1
 133   60   62 1
 134   60  238 1
 135   61  239 1
 136   61  240 1
 137   61  241 1
 138   62  242 1
 139   62  243 1
 140   62  244 1
 141   63   68 1
 142   63   64 1
 143   63  245 1
 144   63  246 1
 145   64   66 1
 146   64   65 1
 147   64  247 1
 148   65   67 2
 149   65   72 am
 150   66  248 1
 151   68  249 1
 152   69   74 1
 153   69   70 1
 154   69  250 1
 155   69  251 1
 156   70   72 1
 157   70   71 1
 158   70  252 1
 159   71   73 2
 160   71   81 am
 161   72  253 1
 162   74   75 1
 163   74  254 1
 164   74  255 1
 165   75   76 2
 166   75   77 am
 167   77  256 1
 168   77  257 1
 169   78   83 1
 170   78   84 1
 171   78   79 1
 172   78  258 1
 173   79   81 1
 174   79   80 1
 175   79  259 1
 176   80   82 2
 177   80   88 am
 178   81  260 1
 179   83  261 1
 180   83  262 1
 181   83  263 1
 182   84  264 1
 183   84  265 1
 184   84  266 1
 185   85   90 1
 186   85   86 1
 187   85  267 1
 188   85  268 1
 189   86   88 1
 190   86   87 1
 191   86  269 1
 192   87   89 2
 193   87   97 am
 194   88  270 1
 195   90   91 1
 196   90  271 1
 197   90  272 1
 198   91   92 2
 199   91   93 1
 200   93  273 1
 201   94   99 1
 202   94   95 1
 203   94  274 1
 204   94  275 1
 205   95   97 1
 206   95   96 1
 207   95  276 1
 208   96   98 2
 209   96  106 am
 210   97  277 1
 211   99  100 1
 212   99  278 1
 213   99  279 1
 214  100  101 2
 215  100  102 am
 216  102  280 1
 217  102  281 1
 218  103  108 1
 219  103  104 1
 220  103  282 1
 221  103  283 1
 222  104  105 1
 223  104  106 1
 224  104  284 1
 225  105  107 2
 226  105  113 am
 227  106  285 1
 228  108  109 2
 229  108  110 1
 230  110  286 1
 231  111  112 1
 232  111  113 1
 233  111  287 1
 234  111  288 1
 235  112  114 2
 236  112  118 am
 237  113  289 1
 238  115  124 1
 239  115  116 1
 240  115  290 1
 241  115  291 1
 242  116  118 1
 243  116  117 1
 244  116  292 1
 245  117  119 2
 246  117  129 am
 247  118  293 1
 248  120  125 1
 249  120  121 1
 250  120  294 1
 251  121  122 2
 252  121  123 1
 253  122  295 1
 254  123  296 1
 255  123  297 1
 256  124  125 1
 257  124  298 1
 258  124  299 1
 259  125  300 1
 260  125  301 1
 261  126  127 1
 262  126  131 1
 263  126  132 1
 264  126  302 1
 265  127  129 1
 266  127  128 1
 267  127  303 1
 268  128  130 2
 269  128  136 am
 270  129  304 1
 271  131  305 1
 272  132  306 1
 273  132  307 1
 274  132  308 1
 275  133  134 1
 276  133  138 1
 277  133  139 1
 278  133  309 1
 279  134  136 1
 280  134  135 1
 281  134  310 1
 282  135  137 2
 283  135  143 am
 284  136  311 1
 285  138  312 1
 286  138  313 1
 287  138  314 1
 288  139  140 1
 289  139  315 1
 290  139  316 1
 291  140  317 1
 292  140  318 1
 293  140  319 1
 294  141  142 1
 295  141  143 1
 296  141  320 1
 297  141  321 1
 298  142  144 2
 299  142  148 am
 300  143  322 1
 301  145  146 1
 302  145  150 1
 303  145  151 1
 304  145  323 1
 305  146  148 1
 306  146  147 1
 307  146  324 1
 308  147  149 2
 309  147  156 am
 310  148  325 1
 311  150  326 1
 312  150  327 1
 313  150  328 1
 314  151  152 1
 315  151  329 1
 316  151  330 1
 317  152  331 1
 318  152  332 1
 319  152  333 1
 320  153  154 1
 321  153  158 1
 322  153  159 1
 323  153  334 1
 324  154  156 1
 325  154  155 1
 326  154  335 1
 327  155  157 2
 328  156  336 1
 329  158  337 1
 330  158  338 1
 331  158  339 1
 332  159  160 1
 333  159  340 1
 334  159  341 1
 335  160  342 1
 336  160  343 1
 337  160  344 1
 338  161  166 1
 339  161  162 1
 340  161  345 1
 341  161  346 1
 342  162  164 1
 343  162  163 1
 344  162  347 1
 345  163  165 2
 346  164  348 1
 347  166  167 1
 348  166  349 1
 349  166  350 1
 350  167  168 2
 351  167  169 am
 352  169  351 1
 353  169  352 1

#	End of record

