#	Name: ASD02560169
#	Creating user name:	WinNT
#	Creation time:	15. 06. 2019 20:24

#	Modifying user name:	WinNT
#	Modification time:	15. 06. 2019 20:24

#	Program:	/corina/corina34_cracker 3.40 0067  02.08.2006

@<TRIPOS>MOLECULE
ASD02560169
  43   47    0    0    0
SMALL
NO_CHARGES


@<TRIPOS>ATOM
   1 C1            -0.0167     1.3798     0.0096 C.ar    
   2 C2             0.0021    -0.0041     0.0020 C.ar    
   3 C3             1.2145    -0.6667    -0.0131 C.ar    
   4 C4             2.3946     0.0543    -0.0205 C.ar    
   5 C5             2.3974     1.4500    -0.0130 C.ar    
   6 C6             1.1546     2.1009     0.0023 C.ar    
   7 S7             4.0932    -0.4390    -0.0393 S.3     
   8 C8             4.7249     1.2160    -0.0364 C.2     
   9 N9             3.6576     2.0204    -0.0219 N.am    
  10 O10            5.8945     1.5527    -0.0461 O.2     
  11 C11            3.8190     3.4765    -0.0161 C.3     
  12 C12            3.8611     3.9829    -1.4349 C.ar    
  13 C13            2.6894     4.3467    -2.0727 C.ar    
  14 C14            5.0720     4.0881    -2.0943 C.ar    
  15 C15            5.1138     4.5519    -3.3946 C.ar    
  16 C16            3.9384     4.9126    -4.0396 C.ar    
  17 C17            2.7247     4.8108    -3.3731 C.ar    
  18 N18            3.9775     5.3836    -5.3589 N.pl3   
  19 C19            3.4318     4.7671    -6.4620 C.ar    
  20 C20            4.5584     6.5409    -5.7876 C.2     
  21 N21            4.4078     6.6665    -7.0742 N.2     
  22 C22            3.7189     5.6031    -7.5590 C.ar    
  23 C23            3.2805     5.2182    -8.8261 C.ar    
  24 N24            2.6126     4.0949    -8.9842 N.ar    
  25 C25            2.3293     3.2907    -7.9731 C.ar    
  26 C26            2.7204     3.5942    -6.6868 C.ar    
  27 C27            5.2698     7.5300    -4.9008 C.3     
  28 H28           -0.9630     1.9002     0.0169 H       
  29 H29           -0.9231    -0.5613     0.0082 H       
  30 H30            1.2405    -1.7464    -0.0188 H       
  31 H31            1.1172     3.1802     0.0085 H       
  32 H32            2.9793     3.9331     0.5078 H       
  33 H33            4.7483     3.7370     0.4904 H       
  34 H34            1.7456     4.2676    -1.5536 H       
  35 H35            5.9860     3.8077    -1.5919 H       
  36 H36            6.0598     4.6342    -3.9090 H       
  37 H37            1.8087     5.0907    -3.8722 H       
  38 H38            3.4895     5.8446    -9.6807 H       
  39 H39            1.7780     2.3807    -8.1584 H       
  40 H40            2.4837     2.9297    -5.8690 H       
  41 H41            6.3261     7.2683    -4.8387 H       
  42 H42            5.1677     8.5316    -5.3186 H       
  43 H43            4.8303     7.5057    -3.9036 H       
@<TRIPOS>BOND
   1    1    2 ar
   2    1    6 ar
   3    1   28 1
   4    2    3 ar
   5    2   29 1
   6    3    4 ar
   7    3   30 1
   8    4    5 ar
   9    4    7 1
  10    5    6 ar
  11    5    9 1
  12    6   31 1
  13    7    8 1
  14    8    9 am
  15    8   10 2
  16    9   11 1
  17   11   12 1
  18   11   32 1
  19   11   33 1
  20   12   13 ar
  21   12   14 ar
  22   13   17 ar
  23   13   34 1
  24   14   15 ar
  25   14   35 1
  26   15   16 ar
  27   15   36 1
  28   16   17 ar
  29   16   18 1
  30   17   37 1
  31   18   19 1
  32   18   20 1
  33   19   22 ar
  34   19   26 ar
  35   20   21 2
  36   20   27 1
  37   21   22 1
  38   22   23 ar
  39   23   24 ar
  40   23   38 1
  41   24   25 ar
  42   25   26 ar
  43   25   39 1
  44   26   40 1
  45   27   41 1
  46   27   42 1
  47   27   43 1

#	End of record

