#	Name: ASD01917051
#	Creating user name:	WinNT
#	Creation time:	15. 06. 2019 20:08

#	Modifying user name:	WinNT
#	Modification time:	15. 06. 2019 20:08

#	Program:	/corina/corina34_cracker 3.40 0067  02.08.2006

@<TRIPOS>MOLECULE
ASD01917051
  41   43    0    0    0
SMALL
NO_CHARGES


@<TRIPOS>ATOM
   1 C1             0.0219     1.3591     0.0295 C.ar    
   2 C2             0.0106    -0.0264    -0.1338 C.ar    
   3 C3            -1.2641    -0.7728    -0.0494 C.2     
   4 N4            -2.4694    -0.2649    -0.1980 N.2     
   5 C5            -3.3856    -1.2293    -0.0573 C.2     
   6 N6            -2.7734    -2.3685     0.1837 N.2     
   7 N7            -1.3953    -2.0987     0.1883 N.pl3   
   8 C8            -0.3137    -3.0608     0.4140 C.3     
   9 C9             0.0824    -3.6881    -0.8977 C.2     
  10 O10            1.0610    -4.6060    -0.9343 O.3     
  11 O11           -0.4810    -3.3647    -1.9165 O.2     
  12 C12            1.3897    -5.1679    -2.2322 C.3     
  13 C13           -4.8547    -1.0441    -0.1569 C.ar    
  14 C14           -5.3837     0.2183    -0.4179 C.ar    
  15 C15           -5.7087    -2.1332     0.0045 C.ar    
  16 C16           -7.0739    -1.9567    -0.0893 C.ar    
  17 C17           -6.7501     0.3859    -0.5102 C.ar    
  18 C18            1.2042    -0.7059    -0.3772 C.ar    
  19 C19            2.3919    -0.0075    -0.4560 C.ar    
  20 C20            2.4027     1.3671    -0.2935 C.ar    
  21 C21            1.2168     2.0518    -0.0510 C.ar    
  22 F22            3.5685     2.0454    -0.3712 F       
  23 C23           -7.5959    -0.6988    -0.3437 C.ar    
  24 F24           -8.9332    -0.5304    -0.4353 F       
  25 O25            1.2319     3.4019     0.1085 O.3     
  26 C26           -0.0227     4.0401     0.3548 C.3     
  27 H27           -0.9003     1.8901     0.2137 H       
  28 H28            0.5455    -2.5470     0.8452 H       
  29 H29           -0.6547    -3.8366     1.0995 H       
  30 H30            2.1943    -5.8946    -2.1203 H       
  31 H31            0.5107    -5.6602    -2.6481 H       
  32 H32            1.7109    -4.3706    -2.9025 H       
  33 H33           -4.7251     1.0644    -0.5474 H       
  34 H34           -5.3026    -3.1142     0.2025 H       
  35 H35           -7.7365    -2.8003     0.0353 H       
  36 H36           -7.1609     1.3640    -0.7124 H       
  37 H37            1.1989    -1.7785    -0.5037 H       
  38 H38            3.3153    -0.5349    -0.6445 H       
  39 H39           -0.6966     3.8514    -0.4809 H       
  40 H40           -0.4593     3.6419     1.2707 H       
  41 H41            0.1308     5.1139     0.4624 H       
@<TRIPOS>BOND
   1    1    2 ar
   2    1   21 ar
   3    1   27 1
   4    2    3 1
   5    2   18 ar
   6    3    4 2
   7    3    7 1
   8    4    5 1
   9    5    6 2
  10    5   13 1
  11    6    7 1
  12    7    8 1
  13    8    9 1
  14    8   28 1
  15    8   29 1
  16    9   10 1
  17    9   11 2
  18   10   12 1
  19   12   30 1
  20   12   31 1
  21   12   32 1
  22   13   14 ar
  23   13   15 ar
  24   14   17 ar
  25   14   33 1
  26   15   16 ar
  27   15   34 1
  28   16   23 ar
  29   16   35 1
  30   17   23 ar
  31   17   36 1
  32   18   19 ar
  33   18   37 1
  34   19   20 ar
  35   19   38 1
  36   20   21 ar
  37   20   22 1
  38   21   25 1
  39   23   24 1
  40   25   26 1
  41   26   39 1
  42   26   40 1
  43   26   41 1

#	End of record

