#	Name: ASD05313092
#	Creating user name:	WinNT
#	Creation time:	15. 06. 2019 20:58

#	Modifying user name:	WinNT
#	Modification time:	15. 06. 2019 20:58

#	Program:	/corina/corina34_cracker 3.40 0067  02.08.2006

@<TRIPOS>MOLECULE
ASD05313092
  38   41    0    0    0
SMALL
NO_CHARGES


@<TRIPOS>ATOM
   1 C1            -0.0644     0.7524     1.0952 C.2     
   2 C2             0.1308    -0.6726     0.6349 C.3     
   3 N3             0.9284     1.6759     1.1263 N.pl3   
   4 N4             1.4661    -0.7445     0.0119 N.am    
   5 C5             2.5827    -0.0649     0.6861 C.3     
   6 C6             2.3120     1.4441     0.7151 C.3     
   7 N7            -0.9058     2.5514     1.8293 N.2     
   8 N8            -1.1496     1.3227     1.5257 N.2     
   9 C9             0.3641     2.8198     1.6030 C.2     
  10 C10            1.0459     4.1134     1.8265 C.ar    
  11 C11            0.3246     5.1991     2.3233 C.ar    
  12 C12            0.9768     6.4024     2.5274 C.ar    
  13 C13            2.3298     6.4820     2.2283 C.ar    
  14 C14            2.9835     5.3660     1.7386 C.ar    
  15 N15            2.3410     4.2305     1.5578 N.ar    
  16 C16            1.6574    -1.4143    -1.1419 C.2     
  17 O17            2.7409    -1.3801    -1.6921 O.2     
  18 C18            0.5507    -2.1899    -1.7378 C.ar    
  19 C19            0.3190    -2.1380    -3.1155 C.ar    
  20 C20           -0.7212    -2.8685    -3.6657 C.ar    
  21 C21           -1.5277    -3.6469    -2.8534 C.ar    
  22 C22           -1.3011    -3.7004    -1.4891 C.ar    
  23 C23           -0.2656    -2.9828    -0.9285 C.ar    
  24 F24           -0.9491    -2.8211    -4.9965 F       
  25 F25            1.1065    -1.3777    -3.9073 F       
  26 H26            0.0814    -1.3492     1.4880 H       
  27 H27           -0.6348    -0.9360    -0.0949 H       
  28 H28            2.6735    -0.4380     1.7062 H       
  29 H29            3.5079    -0.2584     0.1432 H       
  30 H30            2.4713     1.8615    -0.2791 H       
  31 H31            2.9877     1.9220     1.4244 H       
  32 H32           -0.7279     5.1020     2.5451 H       
  33 H33            0.4447     7.2605     2.9106 H       
  34 H34            2.8671     7.4071     2.3763 H       
  35 H35            4.0362     5.4254     1.5046 H       
  36 H36           -2.3380    -4.2147    -3.2863 H       
  37 H37           -1.9349    -4.3097    -0.8619 H       
  38 H38           -0.0886    -3.0308     0.1358 H       
@<TRIPOS>BOND
   1    1    2 1
   2    1    3 1
   3    1    8 2
   4    2    4 1
   5    2   26 1
   6    2   27 1
   7    3    6 1
   8    3    9 1
   9    4    5 1
  10    4   16 am
  11    5    6 1
  12    5   28 1
  13    5   29 1
  14    6   30 1
  15    6   31 1
  16    7    8 1
  17    7    9 2
  18    9   10 1
  19   10   11 ar
  20   10   15 ar
  21   11   12 ar
  22   11   32 1
  23   12   13 ar
  24   12   33 1
  25   13   14 ar
  26   13   34 1
  27   14   15 ar
  28   14   35 1
  29   16   17 2
  30   16   18 1
  31   18   19 ar
  32   18   23 ar
  33   19   20 ar
  34   19   25 1
  35   20   21 ar
  36   20   24 1
  37   21   22 ar
  38   21   36 1
  39   22   23 ar
  40   22   37 1
  41   23   38 1

#	End of record

