#	Name: ASD02030129
#	Creating user name:	WinNT
#	Creation time:	15. 06. 2019 20:14

#	Modifying user name:	WinNT
#	Modification time:	15. 06. 2019 20:14

#	Program:	/corina/corina34_cracker 3.40 0067  02.08.2006

@<TRIPOS>MOLECULE
ASD02030129
  53   56    0    0    0
SMALL
NO_CHARGES


@<TRIPOS>ATOM
   1 N1            -0.0609     1.2880     0.3326 N.am    
   2 C2            -0.2660    -0.1671     0.3519 C.3     
   3 C3            -1.3031    -0.5015     1.4312 C.3     
   4 N4            -2.4684     0.3757     1.2506 N.am    
   5 C5            -2.2632     1.8308     1.2313 C.3     
   6 C6            -1.2268     2.1654     0.1576 C.3     
   7 C7             1.1737     1.8087     0.4783 C.2     
   8 C8             2.3174     0.9240     0.7862 C.2     
   9 N9             3.5413     1.3129     1.0722 N.2     
  10 N10            2.2887    -0.4207     0.8290 N.2     
  11 C11            3.4950    -0.8259     1.1347 C.2     
  12 N12            4.2675     0.2698     1.2838 N.pl3   
  13 O13            1.3467     3.0057     0.3565 O.2     
  14 C14           -3.7029    -0.1450     1.1049 C.2     
  15 C15           -3.8800    -1.5931     1.0220 C.2     
  16 O16           -4.6708     0.5913     1.0425 O.2     
  17 C17           -0.7969     3.6271     0.2967 C.3     
  18 C18           -1.8308     1.9339    -1.2289 C.3     
  19 C19            5.6297     0.2730     1.6129 C.ar    
  20 C20            6.3127     1.4756     1.7367 C.ar    
  21 C21            7.6552     1.4755     2.0610 C.ar    
  22 C22            8.3193     0.2794     2.2619 C.ar    
  23 C23            7.6420    -0.9199     2.1393 C.ar    
  24 C24            6.2979    -0.9262     1.8213 C.ar    
  25 O25           -2.9174    -2.5240     1.2081 O.3     
  26 C26           -3.4454    -3.7461     1.0547 C.2     
  27 C27           -4.7690    -3.6198     0.7646 C.2     
  28 C28           -5.0592    -2.2512     0.7460 C.2     
  29 O29           -2.7722    -4.9150     1.1691 O.3     
  30 C30           -1.3800    -4.8340     1.4807 C.3     
  31 H31           -0.6303    -0.4982    -0.6206 H       
  32 H32            0.6753    -0.6662     0.5820 H       
  33 H33           -1.6104    -1.5427     1.3332 H       
  34 H34           -0.8704    -0.3365     2.4180 H       
  35 H35           -3.2045     2.3299     1.0012 H       
  36 H36           -1.8989     2.1619     2.2038 H       
  37 H37            3.8134    -1.8514     1.2499 H       
  38 H38           -0.2603     3.7602     1.2362 H       
  39 H39           -0.1452     3.8949    -0.5350 H       
  40 H40           -1.6788     4.2677     0.2881 H       
  41 H41           -2.7038     2.5740    -1.3564 H       
  42 H42           -1.0904     2.1730    -1.9923 H       
  43 H43           -2.1285     0.8899    -1.3259 H       
  44 H44            5.7947     2.4101     1.5792 H       
  45 H45            8.1869     2.4106     2.1575 H       
  46 H46            9.3693     0.2818     2.5148 H       
  47 H47            8.1634    -1.8525     2.2969 H       
  48 H48            5.7693    -1.8632     1.7260 H       
  49 H49           -5.4659    -4.4253     0.5860 H       
  50 H50           -6.0194    -1.7982     0.5480 H       
  51 H51           -0.8648    -4.2745     0.6998 H       
  52 H52           -1.2505    -4.3266     2.4367 H       
  53 H53           -0.9626    -5.8389     1.5433 H       
@<TRIPOS>BOND
   1    1    2 1
   2    1    7 am
   3    1    6 1
   4    2    3 1
   5    2   31 1
   6    2   32 1
   7    3    4 1
   8    3   33 1
   9    3   34 1
  10    4    5 1
  11    4   14 am
  12    5    6 1
  13    5   35 1
  14    5   36 1
  15    6   17 1
  16    6   18 1
  17    7    8 1
  18    7   13 2
  19    8    9 2
  20    8   10 1
  21    9   12 1
  22   10   11 2
  23   11   12 1
  24   11   37 1
  25   12   19 1
  26   14   15 1
  27   14   16 2
  28   15   25 1
  29   15   28 2
  30   17   38 1
  31   17   39 1
  32   17   40 1
  33   18   41 1
  34   18   42 1
  35   18   43 1
  36   19   20 ar
  37   19   24 ar
  38   20   21 ar
  39   20   44 1
  40   21   22 ar
  41   21   45 1
  42   22   23 ar
  43   22   46 1
  44   23   24 ar
  45   23   47 1
  46   24   48 1
  47   25   26 1
  48   26   27 2
  49   26   29 1
  50   27   28 1
  51   27   49 1
  52   28   50 1
  53   29   30 1
  54   30   51 1
  55   30   52 1
  56   30   53 1

#	End of record

