#	Name: ASD02030453
#	Creating user name:	WinNT
#	Creation time:	15. 06. 2019 20:15

#	Modifying user name:	WinNT
#	Modification time:	15. 06. 2019 20:15

#	Program:	/corina/corina34_cracker 3.40 0067  02.08.2006

@<TRIPOS>MOLECULE
ASD02030453
  26   26    0    0    0
SMALL
NO_CHARGES


@<TRIPOS>ATOM
   1 C1            -0.0178     1.4579     0.0101 C.2     
   2 C2             0.0021    -0.0041     0.0020 C.2     
   3 O3             1.0273     2.0804     0.0034 O.2     
   4 O4            -1.1953     2.1166     0.0192 O.3     
   5 N5            -1.1187    -0.6716     0.0091 N.2     
   6 N6            -1.0997    -2.0725     0.0014 N.pl3   
   7 C7            -2.2988    -2.7868     0.0090 C.ar    
   8 C8            -2.2818    -4.1764     0.0014 C.ar    
   9 C9            -3.4710    -4.8800     0.0089 C.ar    
  10 C10           -4.6778    -4.2018     0.0236 C.ar    
  11 C11           -4.6974    -2.8194     0.0308 C.ar    
  12 C12           -3.5124    -2.1100     0.0300 C.ar    
  13 Cl13          -3.4517    -6.6159    -0.0006 Cl      
  14 Cl14           1.5171    -0.8515    -0.0170 Cl      
  15 C15           -1.1399     3.5445     0.0267 C.3     
  16 C16           -2.5615     4.1100     0.0365 C.3     
  17 H17           -0.2532    -2.5460    -0.0092 H       
  18 H18           -1.3404    -4.7056    -0.0107 H       
  19 H19           -5.6060    -4.7539     0.0291 H       
  20 H20           -5.6407    -2.2935     0.0415 H       
  21 H21           -3.5288    -1.0302     0.0405 H       
  22 H22           -0.6081     3.8828     0.9160 H       
  23 H23           -0.6166     3.8924    -0.8639 H       
  24 H24           -2.5192     5.1991     0.0423 H       
  25 H25           -3.0933     3.7717    -0.8528 H       
  26 H26           -3.0848     3.7620     0.9271 H       
@<TRIPOS>BOND
   1    1    2 1
   2    1    3 2
   3    1    4 1
   4    2    5 2
   5    2   14 1
   6    4   15 1
   7    5    6 1
   8    6    7 1
   9    6   17 1
  10    7    8 ar
  11    7   12 ar
  12    8    9 ar
  13    8   18 1
  14    9   10 ar
  15    9   13 1
  16   10   11 ar
  17   10   19 1
  18   11   12 ar
  19   11   20 1
  20   12   21 1
  21   15   16 1
  22   15   22 1
  23   15   23 1
  24   16   24 1
  25   16   25 1
  26   16   26 1

#	End of record

