#	Name: ASD02198083
#	Creating user name:	WinNT
#	Creation time:	15. 06. 2019 20:18

#	Modifying user name:	WinNT
#	Modification time:	15. 06. 2019 20:18

#	Program:	/corina/corina34_cracker 3.40 0067  02.08.2006

@<TRIPOS>MOLECULE
ASD02198083
  59   63    0    0    0
SMALL
NO_CHARGES


@<TRIPOS>ATOM
   1 C1            -0.0166     1.3744     0.0096 C.2     
   2 C2             0.0021    -0.0041     0.0020 C.2     
   3 C3            -1.1876    -0.8011     0.0086 C.1     
   4 S4             1.5679     2.0035    -0.0022 S.3     
   5 C5             2.2765     0.3966    -0.0175 C.2     
   6 C6             1.2839    -0.5519    -0.0132 C.2     
   7 C7             3.6608     0.1212    -0.0327 C.2     
   8 C8             4.6296     1.2258    -0.0359 C.2     
   9 O9             4.0530    -1.0347    -0.0430 O.2     
  10 N10            1.5315    -1.9170    -0.0224 N.pl3   
  11 N11           -1.1600     2.1393     0.0193 N.pl3   
  12 N12           -2.1314    -1.4334     0.0139 N.1     
  13 C13            5.9875     1.0812    -0.0501 C.2     
  14 C14            6.6886     2.2573    -0.0503 C.2     
  15 C15            5.9175     3.3822    -0.0364 C.2     
  16 S16            4.2169     2.9351    -0.0299 S.3     
  17 C17            6.4328     4.7664    -0.0328 C.ar    
  18 C18            5.5389     5.8382    -0.0181 C.ar    
  19 C19            6.0375     7.1289    -0.0150 C.ar    
  20 C20            7.4138     7.3080    -0.0267 C.ar    
  21 C21            8.2428     6.2008    -0.0410 C.ar    
  22 N22            7.7441     4.9819    -0.0382 N.ar    
  23 C23           -1.0633     3.6011     0.0268 C.3     
  24 C24           -2.4478     4.1961     0.0368 C.ar    
  25 C25           -3.0748     4.4615     1.2413 C.ar    
  26 C26           -4.3420     5.0065     1.2575 C.ar    
  27 C27           -4.9917     5.2902     0.0551 C.ar    
  28 C28           -4.3536     5.0200    -1.1565 C.ar    
  29 C29           -3.0842     4.4798    -1.1586 C.ar    
  30 C30           -6.3500     5.8739     0.0649 C.2     
  31 O31           -6.9034     6.1078     1.1216 O.2     
  32 N32           -6.9746     6.1467    -1.0978 N.am    
  33 C33           -8.3206     6.7251    -1.0881 C.3     
  34 C34           -8.5791     7.5074    -2.3950 C.3     
  35 C35           -9.3646     5.6297    -1.0795 C.2     
  36 O36          -10.0942     5.6885    -2.2027 O.3     
  37 C37           -9.9902     7.0179    -2.7932 C.3     
  38 O38           -9.5176     4.8228    -0.1932 O.2     
  39 H39            2.4445    -2.2443    -0.0326 H       
  40 H40            0.7915    -2.5442    -0.0188 H       
  41 H41           -2.0302     1.7108     0.0212 H       
  42 H42            6.4703     0.1152    -0.0599 H       
  43 H43            7.7680     2.2916    -0.0603 H       
  44 H44            4.4733     5.6626    -0.0096 H       
  45 H45            5.3704     7.9782    -0.0040 H       
  46 H46            7.8337     8.3031    -0.0249 H       
  47 H47            9.3141     6.3377    -0.0501 H       
  48 H48           -0.5223     3.9249     0.9159 H       
  49 H49           -0.5310     3.9346    -0.8640 H       
  50 H50           -2.5711     4.2411     2.1709 H       
  51 H51           -4.8304     5.2129     2.1983 H       
  52 H52           -4.8509     5.2372    -2.0903 H       
  53 H53           -2.5893     4.2703    -2.0954 H       
  54 H54           -6.5330     5.9601    -1.9410 H       
  55 H55           -8.4460     7.3778    -0.2241 H       
  56 H56           -8.5784     8.5817    -2.2110 H       
  57 H57           -7.8467     7.2424    -3.1575 H       
  58 H58          -10.7528     7.6784    -2.3806 H       
  59 H59          -10.0812     6.9607    -3.8779 H       
@<TRIPOS>BOND
   1    1    2 2
   2    1    4 1
   3    1   11 1
   4    2    3 1
   5    2    6 1
   6    3   12 3
   7    4    5 1
   8    5    6 2
   9    5    7 1
  10    6   10 1
  11    7    8 1
  12    7    9 2
  13    8   13 2
  14    8   16 1
  15   10   39 1
  16   10   40 1
  17   11   23 1
  18   11   41 1
  19   13   14 1
  20   13   42 1
  21   14   15 2
  22   14   43 1
  23   15   16 1
  24   15   17 1
  25   17   18 ar
  26   17   22 ar
  27   18   19 ar
  28   18   44 1
  29   19   20 ar
  30   19   45 1
  31   20   21 ar
  32   20   46 1
  33   21   22 ar
  34   21   47 1
  35   23   24 1
  36   23   48 1
  37   23   49 1
  38   24   25 ar
  39   24   29 ar
  40   25   26 ar
  41   25   50 1
  42   26   27 ar
  43   26   51 1
  44   27   28 ar
  45   27   30 1
  46   28   29 ar
  47   28   52 1
  48   29   53 1
  49   30   31 2
  50   30   32 am
  51   32   33 1
  52   32   54 1
  53   33   34 1
  54   33   35 1
  55   33   55 1
  56   34   37 1
  57   34   56 1
  58   34   57 1
  59   35   36 1
  60   35   38 2
  61   36   37 1
  62   37   58 1
  63   37   59 1

#	End of record

