#	Name: ASD03910055
#	Creating user name:	WinNT
#	Creation time:	15. 06. 2019 20:47

#	Modifying user name:	WinNT
#	Modification time:	15. 06. 2019 20:47

#	Program:	/corina/corina34_cracker 3.40 0067  02.08.2006

@<TRIPOS>MOLECULE
ASD03910055
  72   75    0    0    0
SMALL
NO_CHARGES


@<TRIPOS>ATOM
   1 C1             0.9673    17.6368    -3.7678 C.ar    
   2 C2             2.0751    18.4593    -3.6755 C.ar    
   3 C3             3.2946    17.9400    -3.2816 C.ar    
   4 C4             3.4100    16.5973    -2.9794 C.ar    
   5 C5             2.2994    15.7686    -3.0710 C.ar    
   6 C6             1.0746    16.2944    -3.4610 C.ar    
   7 N7             2.4129    14.4078    -2.7655 N.am    
   8 C8             1.3840    13.7596    -2.1844 C.2     
   9 O9             0.3933    14.3729    -1.8477 O.2     
  10 C10            0.1951    11.7972    -1.2946 C.ar    
  11 C11           -0.8726    11.3855    -2.0706 C.ar    
  12 C12           -2.0353    10.9439    -1.4693 C.ar    
  13 C13           -2.1310    10.9137    -0.0856 C.ar    
  14 C14           -1.0583    11.3273     0.6908 C.ar    
  15 C15            0.1022    11.7681     0.0846 C.ar    
  16 O16           -3.2739    10.4801     0.5083 O.3     
  17 C17           -3.3079    10.4931     1.9368 C.3     
  18 C18           -2.2374     9.5860     2.4865 C.2     
  19 C19           -0.3598    18.2069    -4.1975 C.3     
  20 C20            4.4993    18.8400    -3.1824 C.3     
  21 O21           -1.6072     9.9174     3.4684 O.2     
  22 N22           -1.9804     8.4066     1.8872 N.am    
  23 C23            1.4645    12.2726    -1.9531 C.3     
  24 C24           -0.8689     7.5743     2.3544 C.3     
  25 C25           -1.2836     6.8361     3.6010 C.2     
  26 O26           -2.3937     6.9893     4.0528 O.2     
  27 O27           -0.4198     6.0082     4.2094 O.3     
  28 C28           -0.4936     6.5667     1.2659 C.3     
  29 C29           -3.1017    11.9269     2.4559 C.3     
  30 C30           -4.3705    12.2938     3.2530 C.3     
  31 C31           -4.9609    10.9262     3.6777 C.3     
  32 C32           -4.6945    10.0375     2.4365 C.3     
  33 C33            0.0488     7.3011     0.0670 C.ar    
  34 C34            1.3798     7.6720     0.0275 C.ar    
  35 C35            1.8773     8.3457    -1.0722 C.ar    
  36 C36            1.0439     8.6481    -2.1328 C.ar    
  37 C37           -0.2870     8.2764    -2.0938 C.ar    
  38 C38           -0.7835     7.5989    -0.9959 C.ar    
  39 H39            1.9877    19.5095    -3.9120 H       
  40 H40            4.3629    16.1922    -2.6724 H       
  41 H41            0.2090    15.6526    -3.5329 H       
  42 H42            3.2320    13.9311    -2.9719 H       
  43 H43           -0.7977    11.4095    -3.1477 H       
  44 H44           -2.8692    10.6228    -2.0759 H       
  45 H45           -1.1305    11.3051     1.7681 H       
  46 H46            0.9376    12.0902     0.6886 H       
  47 H47           -0.4487    18.1431    -5.2820 H       
  48 H48           -1.1665    17.6398    -3.7329 H       
  49 H49           -0.4243    19.2502    -3.8885 H       
  50 H50            4.5586    19.2583    -2.1776 H       
  51 H51            5.4012    18.2642    -3.3901 H       
  52 H52            4.4094    19.6486    -3.9079 H       
  53 H53           -2.5313     8.1087     1.1464 H       
  54 H54            1.5914    11.7627    -2.9081 H       
  55 H55            2.3140    12.0508    -1.3071 H       
  56 H56           -0.0094     8.2070     2.5758 H       
  57 H57           -0.7312     5.5568     5.0059 H       
  58 H58            0.2658     5.8847     1.6484 H       
  59 H59           -1.3780     5.9997     0.9752 H       
  60 H60           -2.2278    11.9664     3.1062 H       
  61 H61           -2.9756    12.6128     1.6182 H       
  62 H62           -4.1118    12.8866     4.1303 H       
  63 H63           -5.0753    12.8338     2.6208 H       
  64 H64           -4.4395    10.5349     4.5513 H       
  65 H65           -6.0305    11.0103     3.8704 H       
  66 H66           -5.4515    10.2130     1.6721 H       
  67 H67           -4.6727     8.9849     2.7186 H       
  68 H68            2.0310     7.4357     0.8561 H       
  69 H69            2.9171     8.6361    -1.1027 H       
  70 H70            1.4324     9.1750    -2.9917 H       
  71 H71           -0.9382     8.5129    -2.9222 H       
  72 H72           -1.8233     7.3085    -0.9654 H       
@<TRIPOS>BOND
   1    1    2 ar
   2    1   19 1
   3    1    6 ar
   4    2    3 ar
   5    2   39 1
   6    3    4 ar
   7    3   20 1
   8    4    5 ar
   9    4   40 1
  10    5    6 ar
  11    5    7 1
  12    6   41 1
  13    7    8 am
  14    7   42 1
  15    8    9 2
  16    8   23 1
  17   10   11 ar
  18   10   15 ar
  19   10   23 1
  20   11   12 ar
  21   11   43 1
  22   12   13 ar
  23   12   44 1
  24   13   14 ar
  25   13   16 1
  26   14   15 ar
  27   14   45 1
  28   15   46 1
  29   16   17 1
  30   17   18 1
  31   17   29 1
  32   17   32 1
  33   18   21 2
  34   18   22 am
  35   19   47 1
  36   19   48 1
  37   19   49 1
  38   20   50 1
  39   20   51 1
  40   20   52 1
  41   22   24 1
  42   22   53 1
  43   23   54 1
  44   23   55 1
  45   24   25 1
  46   24   28 1
  47   24   56 1
  48   25   26 2
  49   25   27 1
  50   27   57 1
  51   28   33 1
  52   28   58 1
  53   28   59 1
  54   29   30 1
  55   29   60 1
  56   29   61 1
  57   30   31 1
  58   30   62 1
  59   30   63 1
  60   31   32 1
  61   31   64 1
  62   31   65 1
  63   32   66 1
  64   32   67 1
  65   33   34 ar
  66   33   38 ar
  67   34   35 ar
  68   34   68 1
  69   35   36 ar
  70   35   69 1
  71   36   37 ar
  72   36   70 1
  73   37   38 ar
  74   37   71 1
  75   38   72 1

#	End of record

