#	Name: ASD01916278
#	Creating user name:	WinNT
#	Creation time:	15. 06. 2019 20:07

#	Modifying user name:	WinNT
#	Modification time:	15. 06. 2019 20:07

#	Program:	/corina/corina34_cracker 3.40 0067  02.08.2006

@<TRIPOS>MOLECULE
ASD01916278
  37   39    0    0    0
SMALL
NO_CHARGES


@<TRIPOS>ATOM
   1 C1            -0.0529     1.3252    -0.2458 C.ar    
   2 C2             0.0328    -0.0536    -0.1710 C.ar    
   3 C3             1.2269    -0.6577     0.1716 C.ar    
   4 C4             2.3507     0.1242     0.4432 C.ar    
   5 C5             2.2622     1.5147     0.3671 C.ar    
   6 C6             1.0604     2.1104     0.0228 C.ar    
   7 O7             0.9707     3.4643    -0.0527 O.3     
   8 C8             1.4665     4.0758    -1.1605 C.ar    
   9 C9             1.4011     5.4582    -1.3020 C.ar    
  10 N10            1.8954     6.0157    -2.3951 N.ar    
  11 C11            2.4436     5.2799    -3.3411 C.ar    
  12 N12            2.5239     3.9680    -3.2441 N.ar    
  13 C13            2.0578     3.3361    -2.1796 C.ar    
  14 Cl14          -1.3644    -1.0272    -0.5080 Cl      
  15 C15            3.6301    -0.5185     0.8106 C.2     
  16 N16            3.7129    -1.8618     0.8838 N.am    
  17 O17            4.6076     0.1644     1.0467 O.2     
  18 C18            4.9428    -2.4723     1.1259 C.ar    
  19 C19            5.0430    -3.8580     1.0846 C.ar    
  20 C20            7.3586    -3.6348     1.6031 C.ar    
  21 C21            7.1866    -2.2624     1.6222 C.ar    
  22 N22            6.0044    -1.7263     1.3874 N.ar    
  23 C23            6.2692    -4.4522     1.3266 C.ar    
  24 C24            2.9938     5.9580    -4.5692 C.3     
  25 F25            8.5735    -4.1743     1.8444 F       
  26 H26           -0.9877     1.7923    -0.5185 H       
  27 H27            1.2907    -1.7342     0.2296 H       
  28 H28            3.1285     2.1247     0.5766 H       
  29 H29            0.9530     6.0673    -0.5309 H       
  30 H30            2.1270     2.2608    -2.1068 H       
  31 H31            2.9168    -2.4038     0.7680 H       
  32 H32            4.1753    -4.4631     0.8668 H       
  33 H33            8.0304    -1.6220     1.8323 H       
  34 H34            6.3770    -5.5265     1.3015 H       
  35 H35            4.0412     6.2119    -4.4056 H       
  36 H36            2.9121     5.2854    -5.4231 H       
  37 H37            2.4263     6.8673    -4.7673 H       
@<TRIPOS>BOND
   1    1    2 ar
   2    1    6 ar
   3    1   26 1
   4    2    3 ar
   5    2   14 1
   6    3    4 ar
   7    3   27 1
   8    4    5 ar
   9    4   15 1
  10    5    6 ar
  11    5   28 1
  12    6    7 1
  13    7    8 1
  14    8    9 ar
  15    8   13 ar
  16    9   10 ar
  17    9   29 1
  18   10   11 ar
  19   11   12 ar
  20   11   24 1
  21   12   13 ar
  22   13   30 1
  23   15   16 am
  24   15   17 2
  25   16   18 1
  26   16   31 1
  27   18   19 ar
  28   18   22 ar
  29   19   23 ar
  30   19   32 1
  31   20   21 ar
  32   20   25 1
  33   20   23 ar
  34   21   22 ar
  35   21   33 1
  36   23   34 1
  37   24   35 1
  38   24   36 1
  39   24   37 1

#	End of record

