#	Name: ASD01890275
#	Creating user name:	WinNT
#	Creation time:	15. 06. 2019 19:50

#	Modifying user name:	WinNT
#	Modification time:	15. 06. 2019 19:50

#	Program:	/corina/corina34_cracker 3.40 0067  02.08.2006

@<TRIPOS>MOLECULE
ASD01890275
  34   36    0    0    0
SMALL
NO_CHARGES


@<TRIPOS>ATOM
   1 C1            -0.0177     1.4574     0.0101 C.2     
   2 C2             0.0021    -0.0041     0.0020 C.2     
   3 C3             1.1816    -0.6639    -0.0128 C.2     
   4 O4             1.0281     2.0803     0.0034 O.2     
   5 C5            -1.3086     2.1795     0.0201 C.ar    
   6 C6            -1.3311     3.5754     0.0278 C.ar    
   7 C7            -2.5384     4.2425     0.0367 C.ar    
   8 C8            -3.7254     3.5314     0.0380 C.ar    
   9 C9            -3.7102     2.1477     0.0308 C.ar    
  10 C10           -2.5099     1.4681     0.0161 C.ar    
  11 C11            2.4164    -2.8073    -0.0361 C.ar    
  12 C12            1.2016    -2.1337    -0.0209 C.ar    
  13 C13           -0.0116    -2.8502    -0.0127 C.ar    
  14 C14           -0.0176    -4.2066    -0.0198 C.ar    
  15 C15            1.1972    -4.9172    -0.0357 C.ar    
  16 C16            1.2138    -6.3215    -0.0437 C.ar    
  17 C17            2.4040    -6.9829    -0.0596 C.ar    
  18 C18            3.6118    -6.2877    -0.0680 C.ar    
  19 C19            3.6363    -4.9270    -0.0606 C.ar    
  20 C20            2.4264    -4.2090    -0.0442 C.ar    
  21 H21           -0.9258    -0.5567     0.0079 H       
  22 H22            2.1095    -0.1112    -0.0187 H       
  23 H23           -0.4053     4.1316     0.0272 H       
  24 H24           -2.5572     5.3224     0.0430 H       
  25 H25           -4.6680     4.0586     0.0449 H       
  26 H26           -4.6403     1.5986     0.0322 H       
  27 H27           -2.4994     0.3882     0.0060 H       
  28 H28            3.3449    -2.2558    -0.0464 H       
  29 H29           -0.9483    -2.3128    -0.0002 H       
  30 H30           -0.9556    -4.7419    -0.0130 H       
  31 H31            0.2862    -6.8747    -0.0370 H       
  32 H32            2.4121    -8.0628    -0.0653 H       
  33 H33            4.5418    -6.8367    -0.0802 H       
  34 H34            4.5796    -4.4011    -0.0676 H       
@<TRIPOS>BOND
   1    1    2 1
   2    1    4 2
   3    1    5 1
   4    2    3 2
   5    2   21 1
   6    3   12 1
   7    3   22 1
   8    5    6 ar
   9    5   10 ar
  10    6    7 ar
  11    6   23 1
  12    7    8 ar
  13    7   24 1
  14    8    9 ar
  15    8   25 1
  16    9   10 ar
  17    9   26 1
  18   10   27 1
  19   11   12 ar
  20   11   20 ar
  21   11   28 1
  22   12   13 ar
  23   13   14 ar
  24   13   29 1
  25   14   15 ar
  26   14   30 1
  27   15   16 ar
  28   15   20 ar
  29   16   17 ar
  30   16   31 1
  31   17   18 ar
  32   17   32 1
  33   18   19 ar
  34   18   33 1
  35   19   20 ar
  36   19   34 1

#	End of record

