#	Name: ASD00843453
#	Creating user name:	WinNT
#	Creation time:	15. 06. 2019 18:46

#	Modifying user name:	WinNT
#	Modification time:	15. 06. 2019 18:46

#	Program:	/corina/corina34_cracker 3.40 0067  02.08.2006

@<TRIPOS>MOLECULE
ASD00843453
 100  105    0    0    0
SMALL
NO_CHARGES


@<TRIPOS>ATOM
   1 F1             5.6101    -2.3598    -2.1913 F       
   2 N2             0.7514     1.1448    -0.6337 N.ar    
   3 C3             0.9600    -0.1453    -0.8364 C.ar    
   4 C4             0.8546    -1.0524     0.2104 C.ar    
   5 C5             0.5276    -0.5888     1.4726 C.ar    
   6 C6             0.3166     0.7726     1.6438 C.ar    
   7 C7             0.4383     1.6167     0.5583 C.ar    
   8 C8             1.0926    -2.5217    -0.0254 C.3     
   9 C9             0.7876    -3.3160     1.2266 C.2     
  10 C10            0.2430    -3.0197    -1.1964 C.3     
  11 C11           -1.2039    -2.6796    -0.9476 C.2     
  12 N12           -2.1506    -3.0854    -1.8168 N.am    
  13 O13           -1.5164    -2.0409     0.0348 O.2     
  14 C14           -3.5482    -2.6629    -1.6526 C.3     
  15 C15           -4.4410    -3.9077    -1.6374 C.3     
  16 C16           -4.1783    -4.7345    -2.8982 C.3     
  17 C17           -2.7169    -5.1885    -2.9172 C.3     
  18 C18           -1.8035    -3.9537    -2.9502 C.3     
  19 N19           -5.0567    -5.9119    -2.9031 N.3     
  20 C20           -4.9175    -6.6675    -4.1559 C.3     
  21 C21           -5.7866    -7.9255    -4.0889 C.3     
  22 N22           -7.1864    -7.5393    -3.8629 N.3     
  23 C23           -7.3255    -6.7837    -2.6102 C.3     
  24 C24           -6.4564    -5.5257    -2.6771 C.3     
  25 C25           -8.0647    -8.7168    -3.8679 C.3     
  26 O26           -0.2842    -3.3899     1.7896 O.2     
  27 N27            1.9270    -3.9245     1.5967 N.am    
  28 C28            2.5586    -2.7862    -0.2810 C.ar    
  29 C29            2.9854    -3.6344     0.7331 C.ar    
  30 C30            3.4299    -2.3592    -1.2575 C.ar    
  31 C31            4.7513    -2.7766    -1.2353 C.ar    
  32 C32            5.1886    -3.6226    -0.2287 C.ar    
  33 C33            4.3146    -4.0509     0.7507 C.ar    
  34 Cl34           6.8433    -4.1467    -0.1990 Cl      
  35 C35            1.6982    -6.5471     2.3991 C.ar    
  36 C36            0.4264    -6.8643     1.9440 C.ar    
  37 C37            2.6822    -7.5168     2.4353 C.ar    
  38 C38            2.4026    -8.8039     2.0182 C.ar    
  39 C39            1.1319    -9.1261     1.5621 C.ar    
  40 C40            0.1431    -8.1554     1.5253 C.ar    
  41 O41            0.8573   -10.3924     1.1524 O.3     
  42 O42           -0.5410    -5.9105     1.9091 O.3     
  43 C43            1.9239   -11.3412     1.2181 C.3     
  44 C44           -1.8269    -6.3078     1.4290 C.3     
  45 C45           -2.7768    -5.1089     1.4630 C.3     
  46 C46           -9.4895    -8.2917    -3.5071 C.3     
  47 C47           -8.0590    -9.3515    -5.2600 C.3     
  48 O48            1.2795    -0.5872    -2.0788 O.3     
  49 C49            1.2825     0.3802    -3.1306 C.3     
  50 C50            1.7653    -0.2760    -4.4256 C.3     
  51 F51            3.0244    -0.8490    -4.2169 F       
  52 F52            0.8589    -1.2696    -4.8110 F       
  53 S53            2.0609    -4.9049     2.9246 S.o2    
  54 O54            3.4332    -4.8955     3.2935 O.2     
  55 O55            1.0156    -4.5266     3.8097 O.2     
  56 H56            0.4383    -1.2706     2.3054 H       
  57 H57            0.0597     1.1671     2.6158 H       
  58 H58            0.2755     2.6767     0.6862 H       
  59 H59            0.5759    -2.5399    -2.1167 H       
  60 H60            0.3514    -4.1002    -1.2902 H       
  61 H61           -3.6585    -2.1226    -0.7124 H       
  62 H62           -3.8349    -2.0178    -2.4830 H       
  63 H63           -4.2146    -4.5071    -0.7556 H       
  64 H64           -5.4877    -3.6044    -1.6127 H       
  65 H65           -4.3812    -4.1266    -3.7799 H       
  66 H66           -2.5067    -5.7758    -2.0234 H       
  67 H67           -2.5365    -5.7967    -3.8035 H       
  68 H68           -1.9494    -3.4162    -3.8872 H       
  69 H69           -0.7630    -4.2665    -2.8640 H       
  70 H70           -5.2394    -6.0472    -4.9923 H       
  71 H71           -3.8747    -6.9529    -4.2945 H       
  72 H72           -5.7074    -8.4726    -5.0284 H       
  73 H73           -5.4472    -8.5588    -3.2692 H       
  74 H74           -8.3683    -6.4984    -2.4715 H       
  75 H75           -7.0036    -7.4040    -1.7737 H       
  76 H76           -6.5356    -4.9786    -1.7377 H       
  77 H77           -6.7958    -4.8924    -3.4968 H       
  78 H78           -7.7055    -9.4411    -3.1368 H       
  79 H79            3.0842    -1.7001    -2.0401 H       
  80 H80            4.6623    -4.7102     1.5322 H       
  81 H81            3.6715    -7.2680     2.7898 H       
  82 H82            3.1734    -9.5597     2.0467 H       
  83 H83           -0.8463    -8.4044     1.1711 H       
  84 H84            2.2642   -11.4344     2.2495 H       
  85 H85            1.5712   -12.3095     0.8630 H       
  86 H86            2.7498   -11.0034     0.5921 H       
  87 H87           -1.7363    -6.6706     0.4052 H       
  88 H88           -2.2216    -7.1022     2.0624 H       
  89 H89           -2.8674    -4.7461     2.4869 H       
  90 H90           -2.3821    -4.3145     0.8297 H       
  91 H91           -3.7577    -5.4120     1.0968 H       
  92 H92           -9.8487    -7.5674    -4.2381 H       
  93 H93          -10.1413    -9.1654    -3.5107 H       
  94 H94           -9.4936    -7.8395    -2.5153 H       
  95 H95           -7.0439    -9.6543    -5.5171 H       
  96 H96           -8.7107   -10.2252    -5.2637 H       
  97 H97           -8.4182    -8.6272    -5.9910 H       
  98 H98            0.2728     0.7654    -3.2729 H       
  99 H99            1.9506     1.2004    -2.8679 H       
 100 H100           1.8344     0.4770    -5.2107 H       
@<TRIPOS>BOND
   1    1   31 1
   2    2    3 ar
   3    2    7 ar
   4    3    4 ar
   5    3   48 1
   6    4    5 ar
   7    4    8 1
   8    5    6 ar
   9    5   56 1
  10    6    7 ar
  11    6   57 1
  12    7   58 1
  13    8    9 1
  14    8   10 1
  15    8   28 1
  16    9   26 2
  17    9   27 am
  18   10   11 1
  19   10   59 1
  20   10   60 1
  21   11   12 am
  22   11   13 2
  23   12   14 1
  24   12   18 1
  25   14   15 1
  26   14   61 1
  27   14   62 1
  28   15   16 1
  29   15   63 1
  30   15   64 1
  31   16   17 1
  32   16   19 1
  33   16   65 1
  34   17   18 1
  35   17   66 1
  36   17   67 1
  37   18   68 1
  38   18   69 1
  39   19   20 1
  40   19   24 1
  41   20   21 1
  42   20   70 1
  43   20   71 1
  44   21   22 1
  45   21   72 1
  46   21   73 1
  47   22   23 1
  48   22   25 1
  49   23   24 1
  50   23   74 1
  51   23   75 1
  52   24   76 1
  53   24   77 1
  54   25   46 1
  55   25   47 1
  56   25   78 1
  57   27   53 am
  58   27   29 1
  59   28   29 ar
  60   28   30 ar
  61   29   33 ar
  62   30   31 ar
  63   30   79 1
  64   31   32 ar
  65   32   33 ar
  66   32   34 1
  67   33   80 1
  68   35   36 ar
  69   35   37 ar
  70   35   53 1
  71   36   42 1
  72   36   40 ar
  73   37   38 ar
  74   37   81 1
  75   38   39 ar
  76   38   82 1
  77   39   40 ar
  78   39   41 1
  79   40   83 1
  80   41   43 1
  81   42   44 1
  82   43   84 1
  83   43   85 1
  84   43   86 1
  85   44   45 1
  86   44   87 1
  87   44   88 1
  88   45   89 1
  89   45   90 1
  90   45   91 1
  91   46   92 1
  92   46   93 1
  93   46   94 1
  94   47   95 1
  95   47   96 1
  96   47   97 1
  97   48   49 1
  98   49   50 1
  99   49   98 1
 100   49   99 1
 101   50   51 1
 102   50   52 1
 103   50  100 1
 104   53   54 2
 105   53   55 2

#	End of record

