#	Name: ASD01911323
#	Creating user name:	WinNT
#	Creation time:	15. 06. 2019 19:57

#	Modifying user name:	WinNT
#	Modification time:	15. 06. 2019 19:57

#	Program:	/corina/corina34_cracker 3.40 0067  02.08.2006

@<TRIPOS>MOLECULE
ASD01911323
  37   39    0    0    0
SMALL
NO_CHARGES


@<TRIPOS>ATOM
   1 C1            -0.0551     1.4626    -0.0015 C.ar    
   2 C2            -0.0529     0.0805    -0.0212 C.ar    
   3 C3             1.1452    -0.6086    -0.0452 C.ar    
   4 C4             2.3412     0.0846    -0.0500 C.ar    
   5 C5             2.3390     1.4669    -0.0312 C.ar    
   6 C6             1.1409     2.1558    -0.0057 C.ar    
   7 C7             5.2018     3.1570    -1.5665 C.ar    
   8 N8             5.9025     3.5417    -0.5131 N.ar    
   9 C9             7.0430     4.2058    -0.6384 C.ar    
  10 C10            7.5351     4.5125    -1.9041 C.ar    
  11 C11            6.8247     4.1252    -3.0316 C.ar    
  12 C12            5.6384     3.4295    -2.8549 C.ar    
  13 O13            7.7197     4.5867     0.4756 O.3     
  14 C14            9.1109     4.8851     0.3418 C.3     
  15 C15            9.3003     5.8560    -0.8324 C.3     
  16 N16            8.7499     5.2088    -2.0362 N.am    
  17 C17            9.3878     5.2811    -3.2212 C.2     
  18 C18           10.6179     6.1400    -3.3636 C.3     
  19 O19            8.9719     4.6548    -4.1731 O.2     
  20 O20            4.0395     2.4797    -1.3845 O.3     
  21 C21            3.6429     2.2226    -0.0359 C.3     
  22 H22           -0.9912     2.0010     0.0128 H       
  23 H23           -0.9873    -0.4611    -0.0174 H       
  24 H24            1.1469    -1.6885    -0.0599 H       
  25 H25            3.2773    -0.4537    -0.0681 H       
  26 H26            1.1392     3.2358     0.0086 H       
  27 H27            7.1889     4.3560    -4.0218 H       
  28 H28            5.0579     3.1117    -3.7083 H       
  29 H29            9.4752     5.3467     1.2596 H       
  30 H30            9.6645     3.9662     0.1486 H       
  31 H31            8.7657     6.7850    -0.6344 H       
  32 H32           10.3612     6.0618    -0.9751 H       
  33 H33           11.4937     5.5765    -3.0418 H       
  34 H34           10.7375     6.4332    -4.4066 H       
  35 H35           10.5121     7.0314    -2.7454 H       
  36 H36            3.5169     3.1677     0.4923 H       
  37 H37            4.4093     1.6279     0.4611 H       
@<TRIPOS>BOND
   1    1    2 ar
   2    1    6 ar
   3    1   22 1
   4    2    3 ar
   5    2   23 1
   6    3    4 ar
   7    3   24 1
   8    4    5 ar
   9    4   25 1
  10    5    6 ar
  11    5   21 1
  12    6   26 1
  13    7    8 ar
  14    7   20 1
  15    7   12 ar
  16    8    9 ar
  17    9   10 ar
  18    9   13 1
  19   10   11 ar
  20   10   16 1
  21   11   12 ar
  22   11   27 1
  23   12   28 1
  24   13   14 1
  25   14   15 1
  26   14   29 1
  27   14   30 1
  28   15   16 1
  29   15   31 1
  30   15   32 1
  31   16   17 am
  32   17   18 1
  33   17   19 2
  34   18   33 1
  35   18   34 1
  36   18   35 1
  37   20   21 1
  38   21   36 1
  39   21   37 1

#	End of record

