#	Name: ASD05872004
#	Creating user name:	WinNT
#	Creation time:	15. 06. 2019 21:04

#	Modifying user name:	WinNT
#	Modification time:	15. 06. 2019 21:04

#	Program:	/corina/corina34_cracker 3.40 0067  02.08.2006

@<TRIPOS>MOLECULE
ASD05872004
  73   76    0    0    0
SMALL
NO_CHARGES


@<TRIPOS>ATOM
   1 C1            -0.0168     1.3909     0.0097 C.ar    
   2 C2             0.0021    -0.0041     0.0020 C.ar    
   3 C3            -1.1845    -0.7121     0.0091 C.ar    
   4 C4            -2.3952    -0.0265     0.0243 C.ar    
   5 C5            -2.4171     1.3754     0.0325 C.ar    
   6 C6            -1.2170     2.0760     0.0306 C.ar    
   7 C7            -3.8128    -0.4423     0.0357 C.2     
   8 C8            -4.5353     0.7114     0.0493 C.2     
   9 O9            -3.7097     1.7642     0.0473 O.3     
  10 C10           -6.0401     0.7908     0.0635 C.3     
  11 O11           -6.5035     0.8078     1.4153 O.3     
  12 C12           -7.8486     0.8778     1.6063 C.ar    
  13 C13           -8.6984     0.9288     0.5185 C.ar    
  14 C14          -10.0735     1.0003     0.7217 C.ar    
  15 C15          -10.5988     1.0209     2.0211 C.ar    
  16 C16           -9.7332     0.9695     3.1075 C.ar    
  17 C17           -8.3692     0.8924     2.9010 C.ar    
  18 C18          -11.2441     1.0667    -0.1773 C.2     
  19 C19          -12.3327     1.1194     0.6384 C.2     
  20 O20          -11.9429     1.0920     1.9180 O.3     
  21 C21          -13.7630     1.1979     0.1701 C.3     
  22 O22            1.1896    -0.6677    -0.0129 O.3     
  23 S23            1.7432    -0.9772     1.3707 S.o2    
  24 O24            3.1393    -1.3444     1.1913 O.co2   
  25 O25            1.5947     0.2341     2.1624 O.co2   
  26 O26            0.9533    -2.0770     1.9021 O.co2   
  27 O27            1.1546     2.0818     0.0022 O.3     
  28 C28            1.0667     3.5081     0.0107 C.3     
  29 C29          -11.2351     1.0749    -1.6463 C.2     
  30 O30          -11.2862     0.0269    -2.2604 O.2     
  31 O31          -11.1701     2.2446    -2.3135 O.3     
  32 C32          -11.1652     2.1769    -3.7639 C.3     
  33 C33          -11.0880     3.5920    -4.3403 C.3     
  34 O34           -9.8364     4.1833    -3.9852 O.3     
  35 C35           -9.6617     5.5136    -4.4771 C.3     
  36 C36           -4.3345    -1.8156     0.0325 C.2     
  37 O37           -4.5400    -2.3902     1.0840 O.2     
  38 O38           -4.5853    -2.4387    -1.1365 O.3     
  39 C39           -5.0994    -3.7947    -1.0636 C.3     
  40 C40           -5.3209    -4.3328    -2.4786 C.3     
  41 O41           -4.0638    -4.4407    -3.1494 O.3     
  42 C42           -4.1590    -4.9368    -4.4862 C.3     
  43 O43           -7.5269     0.8424     3.9677 O.3     
  44 C44           -8.1222     0.8736     5.2664 C.3     
  45 H45           -1.1723    -1.7920     0.0025 H       
  46 H46           -1.2222     3.1560     0.0368 H       
  47 H47           -6.3607     1.7018    -0.4419 H       
  48 H48           -6.4546    -0.0757    -0.4517 H       
  49 H49           -8.2980     0.9135    -0.4844 H       
  50 H50          -10.1271     0.9847     4.1129 H       
  51 H51          -14.1621     0.1906     0.0511 H       
  52 H52          -14.3571     1.7395     0.9061 H       
  53 H53          -13.8042     1.7203    -0.7857 H       
  54 H54            2.0700     3.9340     0.0034 H       
  55 H55            0.5230     3.8439    -0.8723 H       
  56 H56            0.5400     3.8343     0.9075 H       
  57 H57          -10.3021     1.6009    -4.0978 H       
  58 H58          -12.0796     1.6937    -4.1082 H       
  59 H59          -11.1736     3.5473    -5.4260 H       
  60 H60          -11.9019     4.1939    -3.9361 H       
  61 H61          -10.4461     6.1553    -4.0758 H       
  62 H62           -8.6881     5.8914    -4.1652 H       
  63 H63           -9.7178     5.5087    -5.5657 H       
  64 H64           -4.3816    -4.4279    -0.5423 H       
  65 H65           -6.0454    -3.7960    -0.5222 H       
  66 H66           -5.7893    -5.3155    -2.4244 H       
  67 H67           -5.9692    -3.6512    -3.0292 H       
  68 H68           -4.7831    -4.2676    -5.0785 H       
  69 H69           -3.1630    -4.9890    -4.9261 H       
  70 H70           -4.6033    -5.9320    -4.4737 H       
  71 H71           -8.7903     0.0199     5.3805 H       
  72 H72           -7.3412     0.8277     6.0253 H       
  73 H73           -8.6893     1.7970     5.3840 H       
@<TRIPOS>BOND
   1    1    2 ar
   2    1   27 1
   3    1    6 ar
   4    2    3 ar
   5    2   22 1
   6    3    4 ar
   7    3   45 1
   8    4    5 ar
   9    4    7 1
  10    5    6 ar
  11    5    9 1
  12    6   46 1
  13    7    8 2
  14    7   36 1
  15    8    9 1
  16    8   10 1
  17   10   11 1
  18   10   47 1
  19   10   48 1
  20   11   12 1
  21   12   13 ar
  22   12   17 ar
  23   13   14 ar
  24   13   49 1
  25   14   15 ar
  26   14   18 1
  27   15   16 ar
  28   15   20 1
  29   16   17 ar
  30   16   50 1
  31   17   43 1
  32   18   19 2
  33   18   29 1
  34   19   20 1
  35   19   21 1
  36   21   51 1
  37   21   52 1
  38   21   53 1
  39   22   23 1
  40   23   24 ar
  41   23   25 ar
  42   23   26 ar
  43   27   28 1
  44   28   54 1
  45   28   55 1
  46   28   56 1
  47   29   30 2
  48   29   31 1
  49   31   32 1
  50   32   33 1
  51   32   57 1
  52   32   58 1
  53   33   34 1
  54   33   59 1
  55   33   60 1
  56   34   35 1
  57   35   61 1
  58   35   62 1
  59   35   63 1
  60   36   37 2
  61   36   38 1
  62   38   39 1
  63   39   40 1
  64   39   64 1
  65   39   65 1
  66   40   41 1
  67   40   66 1
  68   40   67 1
  69   41   42 1
  70   42   68 1
  71   42   69 1
  72   42   70 1
  73   43   44 1
  74   44   71 1
  75   44   72 1
  76   44   73 1

#	End of record

