#	Name: ASD02560042
#	Creating user name:	WinNT
#	Creation time:	15. 06. 2019 20:24

#	Modifying user name:	WinNT
#	Modification time:	15. 06. 2019 20:24

#	Program:	/corina/corina34_cracker 3.40 0067  02.08.2006

@<TRIPOS>MOLECULE
ASD02560042
  48   49    0    0    0
SMALL
NO_CHARGES


@<TRIPOS>ATOM
   1 C1            -0.4765     1.1837     0.1612 C.2     
   2 C2            -0.7058    -0.1988     0.2335 C.2     
   3 N3            -1.9670    -0.6597     0.3456 N.am    
   4 C4            -3.0066     0.1932     0.3883 C.2     
   5 N5            -2.8149     1.5235     0.3208 N.am    
   6 C6            -1.5440     2.0377     0.2121 C.2     
   7 O7             0.2308    -0.9785     0.1947 O.2     
   8 O8            -4.1365    -0.2445     0.4889 O.2     
   9 C9             0.9261     1.7202     0.0355 C.3     
  10 C10            1.7516     1.2782     1.2455 C.3     
  11 C11            1.5666     1.1786    -1.2441 C.3     
  12 O12           -3.9271     2.3986     0.3675 O.3     
  13 C13           -4.3168     2.7733     1.6903 C.3     
  14 C14           -5.4385     3.8112     1.6168 C.3     
  15 C15           -5.7893     4.2838     3.0291 C.3     
  16 S16           -1.2941     3.7797     0.1239 S.3     
  17 C17           -2.0411     4.1174    -1.4357 C.ar    
  18 C18           -2.1936     5.4298    -1.8651 C.ar    
  19 C19           -2.7795     5.6909    -3.0880 C.ar    
  20 C20           -3.2147     4.6477    -3.8848 C.ar    
  21 C21           -3.0650     3.3401    -3.4603 C.ar    
  22 C22           -2.4739     3.0716    -2.2414 C.ar    
  23 C23           -3.5417     2.2066    -4.3315 C.3     
  24 C24           -2.9453     7.1143    -3.5546 C.3     
  25 H25           -2.1269    -1.6151     0.3957 H       
  26 H26            0.8963     2.8090    -0.0059 H       
  27 H27            1.2954     1.6640     2.1571 H       
  28 H28            1.7814     0.1894     1.2868 H       
  29 H29            2.7661     1.6662     1.1546 H       
  30 H30            0.9785     1.4935    -2.1062 H       
  31 H31            2.5811     1.5667    -1.3351 H       
  32 H32            1.5964     0.0898    -1.2028 H       
  33 H33           -4.6705     1.8934     2.2278 H       
  34 H34           -3.4612     3.1994     2.2142 H       
  35 H35           -5.1080     4.6617     1.0207 H       
  36 H36           -6.3182     3.3634     1.1546 H       
  37 H37           -6.5884     5.0232     2.9767 H       
  38 H38           -6.1198     3.4333     3.6253 H       
  39 H39           -4.9096     4.7316     3.4914 H       
  40 H40           -1.8545     6.2450    -1.2430 H       
  41 H41           -3.6730     4.8547    -4.8406 H       
  42 H42           -2.3569     2.0502    -1.9106 H       
  43 H43           -2.7646     1.9502    -5.0516 H       
  44 H44           -3.7620     1.3386    -3.7101 H       
  45 H45           -4.4432     2.5112    -4.8630 H       
  46 H46           -2.0626     7.4172    -4.1178 H       
  47 H47           -3.8260     7.1872    -4.1926 H       
  48 H48           -3.0672     7.7679    -2.6909 H       
@<TRIPOS>BOND
   1    1    2 1
   2    1    9 1
   3    1    6 2
   4    2    3 am
   5    2    7 2
   6    3    4 am
   7    3   25 1
   8    4    5 am
   9    4    8 2
  10    5    6 1
  11    5   12 1
  12    6   16 1
  13    9   10 1
  14    9   11 1
  15    9   26 1
  16   10   27 1
  17   10   28 1
  18   10   29 1
  19   11   30 1
  20   11   31 1
  21   11   32 1
  22   12   13 1
  23   13   14 1
  24   13   33 1
  25   13   34 1
  26   14   15 1
  27   14   35 1
  28   14   36 1
  29   15   37 1
  30   15   38 1
  31   15   39 1
  32   16   17 1
  33   17   18 ar
  34   17   22 ar
  35   18   19 ar
  36   18   40 1
  37   19   20 ar
  38   19   24 1
  39   20   21 ar
  40   20   41 1
  41   21   22 ar
  42   21   23 1
  43   22   42 1
  44   23   43 1
  45   23   44 1
  46   23   45 1
  47   24   46 1
  48   24   47 1
  49   24   48 1

#	End of record

