#	Name: ASD05143027
#	Creating user name:	WinNT
#	Creation time:	15. 06. 2019 20:57

#	Modifying user name:	WinNT
#	Modification time:	15. 06. 2019 20:57

#	Program:	/corina/corina34_cracker 3.40 0067  02.08.2006

@<TRIPOS>MOLECULE
ASD05143027
 148  151    0    0    0
SMALL
NO_CHARGES


@<TRIPOS>ATOM
   1 C1            -2.1170     5.3784     7.5193 C.2     
   2 C2            -1.6330     4.6380     8.7394 C.3     
   3 N3            -1.2282     5.9160     6.6606 N.am    
   4 O4            -3.3063     5.4862     7.3075 O.2     
   5 C5            -1.6987     6.6358     5.4745 C.3     
   6 C6            -2.5312     5.6934     4.6029 C.3     
   7 C7            -2.5468     7.8063     5.9008 C.2     
   8 C8            -1.6387     4.5717     4.0681 C.3     
   9 C9            -2.4712     3.6293     3.1965 C.3     
  10 N10           -1.6166     2.5552     2.6844 N.pl3   
  11 C11           -2.1483     1.5819     1.8718 C.2     
  12 N12           -1.3464     0.5740     1.3912 N.pl3   
  13 N13           -3.4128     1.6149     1.5570 N.2     
  14 O14           -3.0408     7.8257     7.0083 O.2     
  15 N15           -2.7563     8.8315     5.0514 N.am    
  16 C16           -3.5808     9.9693     5.4658 C.3     
  17 C17           -2.6782    11.1597     5.7960 C.3     
  18 C18           -1.5232    10.6939     6.6845 C.3     
  19 C19           -0.3811    10.2257     5.8201 C.2     
  20 O20           -0.5827     9.4969     4.8718 O.2     
  21 N21            0.8857    10.6375     6.1240 N.am    
  22 C22            1.9500    10.1275     5.2297 C.3     
  23 C23            2.1016    11.0898     4.0500 C.3     
  24 C24            2.7663    10.3611     2.8803 C.3     
  25 C25            3.7257    11.3137     2.1640 C.3     
  26 N26            3.6758    11.0388     0.7140 N.am    
  27 C27            5.1276    11.0946     2.6716 C.2     
  28 N28            5.5139    11.6412     3.8414 N.am    
  29 O29            5.9083    10.4264     2.0274 O.2     
  30 C30            2.8505    11.8281    -0.0265 C.2     
  31 O31            2.2061    12.7090     0.5021 O.2     
  32 C32            2.7480    11.5938    -1.5117 C.3     
  33 N33            1.5340    12.2774    -2.0139 N.am    
  34 C34            3.9846    12.1649    -2.2085 C.3     
  35 C35            0.4812    11.4583    -2.3094 C.2     
  36 O36            0.5725    10.2577    -2.1639 O.2     
  37 C37           -0.7960    12.0750    -2.8191 C.3     
  38 N38           -1.9232    11.1815    -2.4859 N.am    
  39 C39           -1.0080    13.4371    -2.1554 C.3     
  40 C40           -3.0284    11.7689    -1.9501 C.2     
  41 O41           -3.0580    12.9665    -1.7611 O.2     
  42 C42           -4.2146    10.9095    -1.5959 C.3     
  43 C43            3.9382    11.8217    -3.6752 C.2     
  44 C44            3.2412    12.5705    -4.7237 C.ar    
  45 C45            3.4805    11.8747    -5.9226 C.ar    
  46 N46            4.2652    10.7870    -5.6114 N.pl3   
  47 C47            4.5325    10.7750    -4.2695 C.2     
  48 C48            2.4645    13.7307    -4.7345 C.ar    
  49 C49            1.9401    14.1849    -5.9116 C.ar    
  50 C50            2.1729    13.5016    -7.0975 C.ar    
  51 C51            2.9369    12.3555    -7.1096 C.ar    
  52 N52           -4.8018    11.4090    -0.3317 N.am    
  53 C53           -3.7617     9.4595    -1.4139 C.3     
  54 C54           -4.9605     8.5902    -1.1338 C.ar    
  55 C55           -5.9887     8.5133    -2.0546 C.ar    
  56 C56           -7.0884     7.7160    -1.7977 C.ar    
  57 C57           -7.1596     6.9953    -0.6202 C.ar    
  58 C58           -6.1310     7.0715     0.3001 C.ar    
  59 C59           -5.0293     7.8654     0.0413 C.ar    
  60 C60           -4.5178    10.3449     4.3467 C.2     
  61 N61           -3.9995    10.8341     3.1868 N.am    
  62 O62           -5.7163    10.2129     4.4774 O.2     
  63 C63           -4.9660    11.1850     2.1270 C.3     
  64 C64           -5.1876    12.6988     2.1161 C.3     
  65 C65           -4.4098    10.7464     0.7969 C.2     
  66 C66           -5.8523    13.1264     3.4261 C.3     
  67 N67           -6.0651    14.5799     3.4156 N.3     
  68 O68           -3.6283     9.8214     0.7295 O.2     
  69 C69           -1.0196    13.2673    -0.6349 C.3     
  70 C70           -1.3783    14.6005     0.0245 C.3     
  71 N71           -1.3895    14.4378     1.4804 N.pl3   
  72 C72           -1.6876    15.5087     2.2895 C.2     
  73 N73           -1.6980    15.3561     3.6558 N.pl3   
  74 N74           -1.9603    16.6686     1.7612 N.2     
  75 C75           -8.3589     6.1269    -0.3397 C.3     
  76 H76           -0.5432     4.6413     8.7578 H       
  77 H77           -2.0131     5.1276     9.6360 H       
  78 H78           -1.9927     3.6096     8.7067 H       
  79 H79           -0.2769     5.8263     6.8279 H       
  80 H80           -0.8422     6.9961     4.9047 H       
  81 H81           -3.3367     5.2640     5.1987 H       
  82 H82           -2.9546     6.2505     3.7672 H       
  83 H83           -0.8332     5.0010     3.4723 H       
  84 H84           -1.2152     4.0145     4.9038 H       
  85 H85           -3.2767     3.1999     3.7923 H       
  86 H86           -2.8947     4.1864     2.3608 H       
  87 H87           -0.6756     2.5307     2.9186 H       
  88 H88           -0.4054     0.5494     1.6254 H       
  89 H89           -1.7215    -0.1127     0.8179 H       
  90 H90           -3.7879     0.9282     0.9837 H       
  91 H91           -2.3612     8.8159     4.1656 H       
  92 H92           -4.1596     9.6964     6.3482 H       
  93 H93           -2.2796    11.5804     4.8728 H       
  94 H94           -3.2569    11.9196     6.3212 H       
  95 H95           -1.1895    11.5217     7.3102 H       
  96 H96           -1.8600     9.8730     7.3175 H       
  97 H97            1.0747    11.2237     6.8734 H       
  98 H98            2.8907    10.0690     5.7772 H       
  99 H99            1.6760     9.1386     4.8622 H       
 100 H100           1.1185    11.4473     3.7439 H       
 101 H101           2.7194    11.9366     4.3489 H       
 102 H102           3.3212     9.5014     3.2561 H       
 103 H103           2.0015    10.0224     2.1815 H       
 104 H104           3.4244    12.3444     2.3510 H       
 105 H105           4.2036    10.3321     0.3103 H       
 106 H106           4.8895    12.1757     4.3566 H       
 107 H107           6.4163    11.5002     4.1681 H       
 108 H108           2.6742    10.5244    -1.7094 H       
 109 H109           1.4895    13.2399    -2.1255 H       
 110 H110           4.0011    13.2482    -2.0892 H       
 111 H111           4.8827    11.7367    -1.7634 H       
 112 H112          -0.7355    12.1990    -3.9003 H       
 113 H113          -1.8785    10.2249    -2.6405 H       
 114 H114          -0.1988    14.1097    -2.4397 H       
 115 H115          -1.9601    13.8559    -2.4815 H       
 116 H116          -4.9575    10.9659    -2.3915 H       
 117 H117           4.5842    10.1293    -6.2490 H       
 118 H118           5.1271    10.0295    -3.7624 H       
 119 H119           2.2786    14.2671    -3.8157 H       
 120 H120           1.3393    15.0823    -5.9195 H       
 121 H121           1.7513    13.8728    -8.0199 H       
 122 H122           3.1125    11.8312    -8.0374 H       
 123 H123          -5.4214    12.1549    -0.3065 H       
 124 H124          -3.2684     9.1160    -2.3231 H       
 125 H125          -3.0654     9.3985    -0.5775 H       
 126 H126          -5.9331     9.0764    -2.9745 H       
 127 H127          -7.8920     7.6565    -2.5167 H       
 128 H128          -6.1868     6.5087     1.2202 H       
 129 H129          -4.2257     7.9250     0.7603 H       
 130 H130          -3.0440    10.9466     3.0629 H       
 131 H131          -5.9129    10.6786     2.3141 H       
 132 H132          -4.2281    13.2057     2.0131 H       
 133 H133          -5.8313    12.9657     1.2780 H       
 134 H134          -6.8117    12.6195     3.5291 H       
 135 H135          -5.2085    12.8595     4.2642 H       
 136 H136          -6.6057    14.8604     2.6111 H       
 137 H137          -6.5033    14.8874     4.2709 H       
 138 H138          -1.7586    12.5150    -0.3589 H       
 139 H139          -0.0334    12.9487    -0.2973 H       
 140 H140          -0.6394    15.3527    -0.2514 H       
 141 H141          -2.3646    14.9190    -0.3130 H       
 142 H142          -1.1865    13.5746     1.8736 H       
 143 H143          -1.4950    14.4929     4.0489 H       
 144 H144          -1.9083    16.1116     4.2266 H       
 145 H145          -2.1706    17.4242     2.3320 H       
 146 H146          -8.1807     5.1246    -0.7292 H       
 147 H147          -8.5257     6.0743     0.7362 H       
 148 H148          -9.2376     6.5537    -0.8232 H       
@<TRIPOS>BOND
   1    1    2 1
   2    1    3 am
   3    1    4 2
   4    2   76 1
   5    2   77 1
   6    2   78 1
   7    3    5 1
   8    3   79 1
   9    5    6 1
  10    5    7 1
  11    5   80 1
  12    6    8 1
  13    6   81 1
  14    6   82 1
  15    7   14 2
  16    7   15 am
  17    8    9 1
  18    8   83 1
  19    8   84 1
  20    9   10 1
  21    9   85 1
  22    9   86 1
  23   10   11 1
  24   10   87 1
  25   11   12 1
  26   11   13 2
  27   12   88 1
  28   12   89 1
  29   13   90 1
  30   15   16 1
  31   15   91 1
  32   16   17 1
  33   16   60 1
  34   16   92 1
  35   17   18 1
  36   17   93 1
  37   17   94 1
  38   18   19 1
  39   18   95 1
  40   18   96 1
  41   19   20 2
  42   19   21 am
  43   21   22 1
  44   21   97 1
  45   22   23 1
  46   22   98 1
  47   22   99 1
  48   23   24 1
  49   23  100 1
  50   23  101 1
  51   24   25 1
  52   24  102 1
  53   24  103 1
  54   25   26 1
  55   25   27 1
  56   25  104 1
  57   26   30 am
  58   26  105 1
  59   27   28 am
  60   27   29 2
  61   28  106 1
  62   28  107 1
  63   30   31 2
  64   30   32 1
  65   32   33 1
  66   32   34 1
  67   32  108 1
  68   33   35 am
  69   33  109 1
  70   34   43 1
  71   34  110 1
  72   34  111 1
  73   35   36 2
  74   35   37 1
  75   37   38 1
  76   37   39 1
  77   37  112 1
  78   38   40 am
  79   38  113 1
  80   39   69 1
  81   39  114 1
  82   39  115 1
  83   40   41 2
  84   40   42 1
  85   42   52 1
  86   42   53 1
  87   42  116 1
  88   43   44 1
  89   43   47 2
  90   44   45 ar
  91   44   48 ar
  92   45   46 1
  93   45   51 ar
  94   46   47 1
  95   46  117 1
  96   47  118 1
  97   48   49 ar
  98   48  119 1
  99   49   50 ar
 100   49  120 1
 101   50   51 ar
 102   50  121 1
 103   51  122 1
 104   52   65 am
 105   52  123 1
 106   53   54 1
 107   53  124 1
 108   53  125 1
 109   54   55 ar
 110   54   59 ar
 111   55   56 ar
 112   55  126 1
 113   56   57 ar
 114   56  127 1
 115   57   58 ar
 116   57   75 1
 117   58   59 ar
 118   58  128 1
 119   59  129 1
 120   60   61 am
 121   60   62 2
 122   61   63 1
 123   61  130 1
 124   63   64 1
 125   63   65 1
 126   63  131 1
 127   64   66 1
 128   64  132 1
 129   64  133 1
 130   65   68 2
 131   66   67 1
 132   66  134 1
 133   66  135 1
 134   67  136 1
 135   67  137 1
 136   69   70 1
 137   69  138 1
 138   69  139 1
 139   70   71 1
 140   70  140 1
 141   70  141 1
 142   71   72 1
 143   71  142 1
 144   72   73 1
 145   72   74 2
 146   73  143 1
 147   73  144 1
 148   74  145 1
 149   75  146 1
 150   75  147 1
 151   75  148 1

#	End of record

