#	Name: ASD01885831
#	Creating user name:	WinNT
#	Creation time:	15. 06. 2019 19:50

#	Modifying user name:	WinNT
#	Modification time:	15. 06. 2019 19:50

#	Program:	/corina/corina34_cracker 3.40 0067  02.08.2006

@<TRIPOS>MOLECULE
ASD01885831
  53   57    0    0    0
SMALL
NO_CHARGES


@<TRIPOS>ATOM
   1 C1            -0.5044     1.8275     0.0740 C.ar    
   2 C2            -1.5913     2.7351     0.0007 C.ar    
   3 C3            -2.9146     2.2259    -0.0024 C.ar    
   4 C4            -3.0815     0.8493     0.0672 C.ar    
   5 C5            -1.9561     0.0214     0.1371 C.ar    
   6 N6            -0.7320     0.5150     0.1389 N.ar    
   7 C7             1.0143     3.6776     0.0043 C.ar    
   8 C8            -0.0570     4.5658    -0.0609 C.ar    
   9 C9            -1.3420     4.1117    -0.0665 C.ar    
  10 C10           -4.0820     3.1339    -0.0772 C.2     
  11 C11           -2.1432    -1.4477     0.2118 C.2     
  12 C12            2.4227     4.2136     0.0097 C.3     
  13 N13            2.8503     4.4530     1.3945 N.3     
  14 C14            0.8090     2.3340     0.0712 C.ar    
  15 N15           -1.0706    -2.2610     0.2803 N.am    
  16 O16           -3.2634    -1.9183     0.2112 O.2     
  17 C17            4.2524     4.8919     1.4446 C.3     
  18 C18            4.8018     5.1496     2.8511 C.3     
  19 C19            4.5535     3.9055     3.7115 C.3     
  20 C20            3.0648     3.5523     3.6641 C.3     
  21 C21            2.6532     3.2538     2.2215 C.3     
  22 C22           -4.3099     4.2678     0.7297 C.2     
  23 N23           -5.4418     4.8056     0.3619 N.2     
  24 N24           -5.9782     4.0455    -0.6842 N.pl3   
  25 C25           -5.1331     3.0298    -0.9449 C.2     
  26 C26           -7.2400     4.3119    -1.3792 C.3     
  27 C27            5.2132     4.3205     0.4020 C.3     
  28 C28            4.7614     5.7796     0.3096 C.3     
  29 H29           -4.0729     0.4209     0.0677 H       
  30 H30            0.1333     5.6279    -0.1072 H       
  31 H31           -2.1640     4.8100    -0.1229 H       
  32 H32            3.0895     3.4879    -0.4561 H       
  33 H33            2.4574     5.1494    -0.5482 H       
  34 H34            1.6505     1.6589     0.1221 H       
  35 H35           -0.1764    -1.8853     0.2808 H       
  36 H36           -1.1930    -3.2220     0.3292 H       
  37 H37            5.8722     5.3476     2.7949 H       
  38 H38            4.2918     6.0064     3.2915 H       
  39 H39            5.1384     3.0715     3.3237 H       
  40 H40            4.8468     4.1101     4.7412 H       
  41 H41            2.8804     2.6743     4.2831 H       
  42 H42            2.4806     4.3913     4.0420 H       
  43 H43            1.6026     2.9642     2.1964 H       
  44 H44            3.2633     2.4393     1.8311 H       
  45 H45           -3.6618     4.6283     1.5149 H       
  46 H46           -5.2652     2.2675    -1.6984 H       
  47 H47           -7.0539     4.9632    -2.2332 H       
  48 H48           -7.6693     3.3719    -1.7258 H       
  49 H49           -7.9355     4.7988    -0.6956 H       
  50 H50            6.2400     4.1303     0.7145 H       
  51 H51            4.8061     3.6203    -0.3275 H       
  52 H52            4.0572     6.0394    -0.4808 H       
  53 H53            5.4910     6.5494     0.5611 H       
@<TRIPOS>BOND
   1    1    6 ar
   2    1   14 ar
   3    1    2 ar
   4    2    3 ar
   5    2    9 ar
   6    3   10 1
   7    3    4 ar
   8    4    5 ar
   9    4   29 1
  10    5   11 1
  11    5    6 ar
  12    7   12 1
  13    7    8 ar
  14    7   14 ar
  15    8    9 ar
  16    8   30 1
  17    9   31 1
  18   10   22 1
  19   10   25 2
  20   11   15 am
  21   11   16 2
  22   12   13 1
  23   12   32 1
  24   12   33 1
  25   13   17 1
  26   13   21 1
  27   14   34 1
  28   15   35 1
  29   15   36 1
  30   17   18 1
  31   17   27 1
  32   17   28 1
  33   18   19 1
  34   18   37 1
  35   18   38 1
  36   19   20 1
  37   19   39 1
  38   19   40 1
  39   20   21 1
  40   20   41 1
  41   20   42 1
  42   21   43 1
  43   21   44 1
  44   22   23 2
  45   22   45 1
  46   23   24 1
  47   24   25 1
  48   24   26 1
  49   25   46 1
  50   26   47 1
  51   26   48 1
  52   26   49 1
  53   27   28 1
  54   27   50 1
  55   27   51 1
  56   28   52 1
  57   28   53 1

#	End of record

