#	Name: ASD01810390
#	Creating user name:	WinNT
#	Creation time:	15. 06. 2019 19:24

#	Modifying user name:	WinNT
#	Modification time:	15. 06. 2019 19:24

#	Program:	/corina/corina34_cracker 3.40 0067  02.08.2006

@<TRIPOS>MOLECULE
ASD01810390
  35   35    0    0    0
SMALL
NO_CHARGES


@<TRIPOS>ATOM
   1 C1             0.0021    -0.0041     0.0020 C.1     
   2 C2            -0.0173     1.4278     0.0099 C.ar    
   3 C3             1.1789     2.1564     0.0024 C.ar    
   4 C4             1.1051     3.5379     0.0106 C.ar    
   5 C5            -0.1357     4.1498     0.0257 C.ar    
   6 N6            -1.2463     3.4380     0.0329 N.ar    
   7 C7            -1.2288     2.1212     0.0193 C.ar    
   8 N8             0.0175    -1.1399    -0.0042 N.1     
   9 N9            -1.0878     8.0823     1.3349 N.3     
  10 C10           -1.7679     7.6114     0.1216 C.3     
  11 C11           -1.6892     6.0847     0.0511 C.3     
  12 C12           -0.2198     5.6544     0.0347 C.3     
  13 C13            0.4771     6.1984     1.2848 C.3     
  14 C14            0.3356     7.7219     1.3196 C.3     
  15 F15            0.4039     6.1643    -1.1091 F       
  16 H16            2.1342     1.6528    -0.0091 H       
  17 H17            2.0067     4.1325     0.0055 H       
  18 H18           -2.1594     1.5732     0.0203 H       
  19 H19           -1.2077     9.0771     1.4536 H       
  20 H20           -2.8129     7.9204     0.1478 H       
  21 H21           -1.2843     8.0409    -0.7558 H       
  22 H22           -2.1848     5.6541     0.9212 H       
  23 H23           -2.1805     5.7365    -0.8575 H       
  24 H24            0.0156     5.7697     2.1744 H       
  25 H25            1.5336     5.9316     1.2577 H       
  26 H26            0.8094     8.1508     0.4366 H       
  27 H27            0.8185     8.1111     2.2159 H       
  28 C28            8.3057    16.0653     8.3627 C.2     
  29 C29            8.3261    14.5585     8.3544 C.3     
  30 O30            9.3437    16.6836     8.3561 O.2     
  31 O31            7.1342    16.7206     8.3718 O.3     
  32 F32            9.6512    14.1102     8.3394 F       
  33 F33            7.6839    14.0771     9.5003 F       
  34 F34            7.6621    14.0894     7.2159 F       
  35 H35            7.1717    17.6869     8.3769 H       
@<TRIPOS>BOND
   1    1    2 1
   2    1    8 3
   3    2    3 ar
   4    2    7 ar
   5    3    4 ar
   6    3   16 1
   7    4    5 ar
   8    4   17 1
   9    5    6 ar
  10    5   12 1
  11    6    7 ar
  12    7   18 1
  13    9   10 1
  14    9   14 1
  15    9   19 1
  16   10   11 1
  17   10   20 1
  18   10   21 1
  19   11   12 1
  20   11   22 1
  21   11   23 1
  22   12   13 1
  23   12   15 1
  24   13   14 1
  25   13   24 1
  26   13   25 1
  27   14   26 1
  28   14   27 1
  29   28   29 1
  30   28   30 2
  31   28   31 1
  32   29   32 1
  33   29   33 1
  34   29   34 1
  35   31   35 1

#	End of record

