#	Name: ASD00170184
#	Creating user name:	WinNT
#	Creation time:	15. 06. 2019 18:31

#	Modifying user name:	WinNT
#	Modification time:	15. 06. 2019 18:31

#	Program:	/corina/corina34_cracker 3.40 0067  02.08.2006

@<TRIPOS>MOLECULE
ASD00170184
  34   36    0    0    0
SMALL
NO_CHARGES


@<TRIPOS>ATOM
   1 C1             0.0146     1.3184    -0.0546 C.2     
   2 C2             0.0205    -0.0182    -0.0729 C.2     
   3 C3            -1.3167    -0.5801     0.0123 C.2     
   4 C4            -2.3001     0.3737     0.0935 C.2     
   5 S5            -1.6250     1.9361     0.0612 S.3     
   6 C6             1.2610     2.1797    -0.1307 C.3     
   7 C7             2.4804     1.3108     0.1888 C.3     
   8 C8             2.4278     0.0421    -0.6678 C.3     
   9 C9             1.2886    -0.8514    -0.1714 C.3     
  10 N10           -3.6500     0.1036     0.1835 N.pl3   
  11 C11           -1.5874    -2.0170     0.0108 C.2     
  12 C12           -1.8372    -2.7214    -1.2662 C.ar    
  13 O13           -1.6072    -2.6339     1.0605 O.2     
  14 C14           -1.9779    -4.1107    -1.2811 C.ar    
  15 C15           -2.2104    -4.7666    -2.4693 C.ar    
  16 C16           -2.3060    -4.0419    -3.6599 C.ar    
  17 C17           -2.1656    -2.6521    -3.6445 C.ar    
  18 C18           -1.9380    -1.9963    -2.4553 C.ar    
  19 C19           -2.5473    -4.7238    -4.8958 C.1     
  20 N20           -2.7387    -5.2646    -5.8763 N.1     
  21 H21            1.3593     2.5923    -1.1348 H       
  22 H22            1.1899     2.9904     0.5944 H       
  23 H23            3.3919     1.8648    -0.0357 H       
  24 H24            2.4680     1.0389     1.2443 H       
  25 H25            2.2522     0.3125    -1.7090 H       
  26 H26            3.3735    -0.4934    -0.5840 H       
  27 H27            1.5402    -1.2528     0.8102 H       
  28 H28            1.1335    -1.6699    -0.8743 H       
  29 H29           -3.9672    -0.8107     0.1172 H       
  30 H30           -4.2820     0.8279     0.3132 H       
  31 H31           -1.9040    -4.6708    -0.3607 H       
  32 H32           -2.3185    -5.8411    -2.4809 H       
  33 H33           -2.2394    -2.0916    -4.5648 H       
  34 H34           -1.8295    -0.9219    -2.4434 H       
@<TRIPOS>BOND
   1    1    2 2
   2    1    6 1
   3    1    5 1
   4    2    3 1
   5    2    9 1
   6    3    4 2
   7    3   11 1
   8    4    5 1
   9    4   10 1
  10    6    7 1
  11    6   21 1
  12    6   22 1
  13    7    8 1
  14    7   23 1
  15    7   24 1
  16    8    9 1
  17    8   25 1
  18    8   26 1
  19    9   27 1
  20    9   28 1
  21   10   29 1
  22   10   30 1
  23   11   12 1
  24   11   13 2
  25   12   14 ar
  26   12   18 ar
  27   14   15 ar
  28   14   31 1
  29   15   16 ar
  30   15   32 1
  31   16   17 ar
  32   16   19 1
  33   17   18 ar
  34   17   33 1
  35   18   34 1
  36   19   20 3

#	End of record

