#	Name: ASD04170036
#	Creating user name:	WinNT
#	Creation time:	15. 06. 2019 20:48

#	Modifying user name:	WinNT
#	Modification time:	15. 06. 2019 20:48

#	Program:	/corina/corina34_cracker 3.40 0067  02.08.2006

@<TRIPOS>MOLECULE
ASD04170036
  34   36    0    0    0
SMALL
NO_CHARGES


@<TRIPOS>ATOM
   1 Cl1            0.0021    -0.0041     0.0020 Cl      
   2 C2            -0.0215     1.7317     0.0116 C.ar    
   3 C3             1.1688     2.4390     0.0040 C.ar    
   4 C4             1.1585     3.8226     0.0115 C.ar    
   5 C5            -0.0390     4.5068     0.0266 C.ar    
   6 C6            -1.2436     3.8004     0.0343 C.ar    
   7 C7            -1.2273     2.4046     0.0209 C.ar    
   8 C8            -2.5297     4.5271     0.0510 C.2     
   9 O9            -2.5409     5.7417     0.0581 O.2     
  10 O10           -3.6900     3.8428     0.0584 O.3     
  11 C11           -4.9149     4.6222     0.0748 C.3     
  12 C12           -6.0231     3.8446    -0.6409 C.3     
  13 C13           -6.3516     2.5831     0.1736 C.3     
  14 C14           -5.0162     1.8934     0.5363 C.3     
  15 C15           -4.5875     2.5392     1.8703 C.3     
  16 C16           -5.7027     3.5605     2.1924 C.3     
  17 C17           -5.3270     4.8930     1.5246 C.3     
  18 N18           -6.8977     3.0328     1.4817 N.3     
  19 H19            2.1094     1.9084    -0.0075 H       
  20 H20            2.0906     4.3682     0.0059 H       
  21 H21           -0.0451     5.5867     0.0329 H       
  22 H22           -2.1554     1.8522     0.0265 H       
  23 H23           -4.7484     5.5701    -0.4370 H       
  24 H24           -6.9131     4.4687    -0.7221 H       
  25 H25           -5.6838     3.5584    -1.6364 H       
  26 H26           -7.0290     1.9155    -0.3589 H       
  27 H27           -5.1656     0.8214     0.6646 H       
  28 H28           -4.2694     2.0836    -0.2346 H       
  29 H29           -4.5260     1.7847     2.6545 H       
  30 H30           -3.6298     3.0469     1.7554 H       
  31 H31           -5.8642     3.6698     3.2648 H       
  32 H32           -4.4950     5.3486     2.0616 H       
  33 H33           -6.1856     5.5643     1.5408 H       
  34 H34           -7.5911     3.7548     1.3550 H       
@<TRIPOS>BOND
   1    1    2 1
   2    2    3 ar
   3    2    7 ar
   4    3    4 ar
   5    3   19 1
   6    4    5 ar
   7    4   20 1
   8    5    6 ar
   9    5   21 1
  10    6    7 ar
  11    6    8 1
  12    7   22 1
  13    8    9 2
  14    8   10 1
  15   10   11 1
  16   11   12 1
  17   11   17 1
  18   11   23 1
  19   12   13 1
  20   12   24 1
  21   12   25 1
  22   13   14 1
  23   13   18 1
  24   13   26 1
  25   14   15 1
  26   14   27 1
  27   14   28 1
  28   15   16 1
  29   15   29 1
  30   15   30 1
  31   16   17 1
  32   16   18 1
  33   16   31 1
  34   17   32 1
  35   17   33 1
  36   18   34 1

#	End of record

