#	Name: ASD04230187
#	Creating user name:	WinNT
#	Creation time:	15. 06. 2019 20:48

#	Modifying user name:	WinNT
#	Modification time:	15. 06. 2019 20:48

#	Program:	/corina/corina34_cracker 3.40 0067  02.08.2006

@<TRIPOS>MOLECULE
ASD04230187
  52   55    0    0    0
SMALL
NO_CHARGES


@<TRIPOS>ATOM
   1 C1             0.0763     1.3677     0.8486 C.2     
   2 C2             0.0732    -0.0870     0.6267 C.ar    
   3 C3            -1.1614    -0.7666     0.5518 C.ar    
   4 C4            -2.3786    -0.0591     0.6876 C.ar    
   5 C5            -2.3666     1.3407     0.9006 C.2     
   6 C6            -1.1622     2.0440     0.9868 C.2     
   7 C7             1.2597    -0.8003     0.4908 C.ar    
   8 C8             1.2302    -2.1696     0.2825 C.ar    
   9 C9             0.0346    -2.8512     0.2058 C.ar    
  10 C10           -1.1771    -2.1626     0.3391 C.ar    
  11 C11           -2.4211    -2.8365     0.2642 C.ar    
  12 C12           -3.6039    -2.1188     0.4010 C.ar    
  13 C13           -3.5904    -0.7571     0.6088 C.ar    
  14 O14            1.1285     1.9815     0.9176 O.2     
  15 S15           -2.4691    -4.5776    -0.0018 S.3     
  16 C16           -4.1997    -4.8648     0.1627 C.ar    
  17 C17           -5.0143    -4.8660    -0.9628 C.ar    
  18 C18           -6.3702    -5.0910    -0.8328 C.ar    
  19 C19           -6.9194    -5.3159     0.4213 C.ar    
  20 C20           -6.1069    -5.3149     1.5459 C.ar    
  21 C21           -4.7499    -5.0957     1.4175 C.ar    
  22 O22           -8.2550    -5.5370     0.5484 O.3     
  23 C23           -8.7528    -5.7613     1.8690 C.3     
  24 C24           -1.1792     3.4595     1.2030 C.1     
  25 N25           -1.1927     4.5824     1.3745 N.1     
  26 N26           -3.5568     2.0165     1.0306 N.3     
  27 C27           -3.6429     2.6846     2.3360 C.3     
  28 C28           -4.9779     3.4243     2.4433 C.3     
  29 C29           -5.0676     4.1202     3.8029 C.3     
  30 C30           -6.4026     4.8598     3.9102 C.3     
  31 H31            2.2071    -0.2848     0.5474 H       
  32 H32            2.1586    -2.7115     0.1782 H       
  33 H33            0.0326    -3.9188     0.0425 H       
  34 H34           -4.5494    -2.6375     0.3428 H       
  35 H35           -4.5232    -0.2226     0.7120 H       
  36 H36           -4.5870    -4.6906    -1.9391 H       
  37 H37           -7.0036    -5.0917    -1.7075 H       
  38 H38           -6.5355    -5.4897     2.5217 H       
  39 H39           -4.1175    -5.0950     2.2930 H       
  40 H40           -9.8298    -5.9237     1.8286 H       
  41 H41           -8.2686    -6.6399     2.2954 H       
  42 H42           -8.5395    -4.8915     2.4902 H       
  43 H43           -3.6820     2.6764     0.2777 H       
  44 H44           -3.5747     1.9410     3.1300 H       
  45 H45           -2.8238     3.3971     2.4342 H       
  46 H46           -5.0461     4.1680     1.6493 H       
  47 H47           -5.7969     2.7118     2.3451 H       
  48 H48           -4.9994     3.3765     4.5969 H       
  49 H49           -4.2486     4.8327     3.9011 H       
  50 H50           -6.4708     5.6035     3.1162 H       
  51 H51           -7.2216     4.1474     3.8120 H       
  52 H52           -6.4665     5.3556     4.8788 H       
@<TRIPOS>BOND
   1    1    2 1
   2    1   14 2
   3    1    6 1
   4    2    3 ar
   5    2    7 ar
   6    3    4 ar
   7    3   10 ar
   8    4    5 1
   9    4   13 ar
  10    5    6 2
  11    5   26 1
  12    6   24 1
  13    7    8 ar
  14    7   31 1
  15    8    9 ar
  16    8   32 1
  17    9   10 ar
  18    9   33 1
  19   10   11 ar
  20   11   12 ar
  21   11   15 1
  22   12   13 ar
  23   12   34 1
  24   13   35 1
  25   15   16 1
  26   16   17 ar
  27   16   21 ar
  28   17   18 ar
  29   17   36 1
  30   18   19 ar
  31   18   37 1
  32   19   20 ar
  33   19   22 1
  34   20   21 ar
  35   20   38 1
  36   21   39 1
  37   22   23 1
  38   23   40 1
  39   23   41 1
  40   23   42 1
  41   24   25 3
  42   26   27 1
  43   26   43 1
  44   27   28 1
  45   27   44 1
  46   27   45 1
  47   28   29 1
  48   28   46 1
  49   28   47 1
  50   29   30 1
  51   29   48 1
  52   29   49 1
  53   30   50 1
  54   30   51 1
  55   30   52 1

#	End of record

