#	Name: ASD09740119
#	Creating user name:	WinNT
#	Creation time:	15. 06. 2019 21:22

#	Modifying user name:	WinNT
#	Modification time:	15. 06. 2019 21:22

#	Program:	/corina/corina34_cracker 3.40 0067  02.08.2006

@<TRIPOS>MOLECULE
ASD09740119
  44   46    0    0    0
SMALL
NO_CHARGES


@<TRIPOS>ATOM
   1 N1             0.0470     1.3633     0.0197 N.2     
   2 N2            -0.0390     0.0943     0.2042 N.2     
   3 C3             1.2990     1.7011    -0.2003 C.2     
   4 N4             2.0438     0.5519    -0.1475 N.pl3   
   5 C5             1.1544    -0.4548     0.1130 C.2     
   6 C6             1.4735    -1.8899     0.2638 C.ar    
   7 C7             1.8075     3.0653    -0.4572 C.ar    
   8 C8             0.9444     4.0907    -0.8617 C.ar    
   9 C9             1.4617     5.3488    -1.0900 C.ar    
  10 N10            2.7491     5.5911    -0.9325 N.ar    
  11 C11            3.5968     4.6540    -0.5528 C.ar    
  12 C12            3.1647     3.3692    -0.2972 C.ar    
  13 C13            2.7804    -2.2897     0.5468 C.ar    
  14 C14            2.0784    -4.5822     0.5473 C.ar    
  15 C15            0.7703    -4.1893     0.2708 C.ar    
  16 C16            0.4669    -2.8485     0.1290 C.ar    
  17 C17            3.0767    -3.6297     0.6873 C.ar    
  18 C18            3.4917     0.4270    -0.3322 C.3     
  19 O19            2.3752    -5.9012     0.6870 O.3     
  20 C20            3.7359    -6.2336     0.9699 C.3     
  21 C21            3.8752    -7.7524     1.0917 C.3     
  22 O22           -0.2076    -5.1254     0.1401 O.3     
  23 C23           -1.5256    -4.6514    -0.1433 C.3     
  24 C24           -2.4822    -5.8403    -0.2542 C.3     
  25 H25           -0.1103     3.8994    -0.9933 H       
  26 H26            0.8039     6.1464    -1.4023 H       
  27 H27            4.6426     4.8971    -0.4369 H       
  28 H28            3.8643     2.6072     0.0132 H       
  29 H29            3.5598    -1.5501     0.6556 H       
  30 H30           -0.5465    -2.5426    -0.0853 H       
  31 H31            4.0884    -3.9377     0.9063 H       
  32 H32            3.9922     0.5473     0.6285 H       
  33 H33            3.7223    -0.5565    -0.7415 H       
  34 H34            3.8378     1.1975    -1.0212 H       
  35 H35            4.3733    -5.8740     0.1621 H       
  36 H36            4.0373    -5.7648     1.9066 H       
  37 H37            3.2378    -8.1120     1.8995 H       
  38 H38            3.5738    -8.2212     0.1550 H       
  39 H39            4.9131    -8.0059     1.3075 H       
  40 H40           -1.8557    -3.9932     0.6604 H       
  41 H41           -1.5193    -4.1011    -1.0842 H       
  42 H42           -3.4875    -5.4788    -0.4704 H       
  43 H43           -2.1521    -6.4985    -1.0580 H       
  44 H44           -2.4885    -6.3906     0.6866 H       
@<TRIPOS>BOND
   1    1    2 1
   2    1    3 2
   3    2    5 2
   4    3    4 1
   5    3    7 1
   6    4    5 1
   7    4   18 1
   8    5    6 1
   9    6   13 ar
  10    6   16 ar
  11    7    8 ar
  12    7   12 ar
  13    8    9 ar
  14    8   25 1
  15    9   10 ar
  16    9   26 1
  17   10   11 ar
  18   11   12 ar
  19   11   27 1
  20   12   28 1
  21   13   17 ar
  22   13   29 1
  23   14   15 ar
  24   14   19 1
  25   14   17 ar
  26   15   16 ar
  27   15   22 1
  28   16   30 1
  29   17   31 1
  30   18   32 1
  31   18   33 1
  32   18   34 1
  33   19   20 1
  34   20   21 1
  35   20   35 1
  36   20   36 1
  37   21   37 1
  38   21   38 1
  39   21   39 1
  40   22   23 1
  41   23   24 1
  42   23   40 1
  43   23   41 1
  44   24   42 1
  45   24   43 1
  46   24   44 1

#	End of record

