#	Name: ASD08150658
#	Creating user name:	WinNT
#	Creation time:	15. 06. 2019 21:16

#	Modifying user name:	WinNT
#	Modification time:	15. 06. 2019 21:16

#	Program:	/corina/corina34_cracker 3.40 0067  02.08.2006

@<TRIPOS>MOLECULE
ASD08150658
  74   80    0    0    0
SMALL
NO_CHARGES


@<TRIPOS>ATOM
   1 N1             0.3345     0.9553     2.7436 N.am    
   2 C2             0.1540    -0.1020     3.5587 C.2     
   3 C3             1.2141    -0.9871     3.8412 C.2     
   4 C4             2.4386    -0.7839     3.2917 C.2     
   5 C5             2.6319     0.3274     2.4337 C.ar    
   6 C6             3.8815     0.5836     1.8375 C.ar    
   7 N7             4.0570     1.6097     1.0464 N.ar    
   8 C8             3.0691     2.4704     0.7575 C.ar    
   9 C9             1.7783     2.2900     1.3127 C.ar    
  10 C10            1.5554     1.1895     2.1733 C.ar    
  11 C11            0.7559     3.1932     1.0061 C.ar    
  12 C12            1.0177     4.2585     0.1596 C.ar    
  13 C13            2.2977     4.4305    -0.3859 C.ar    
  14 C14            3.3021     3.5602    -0.0975 C.ar    
  15 O15           -0.9408    -0.2957     4.0591 O.2     
  16 C16           -0.0611     5.2208    -0.1711 C.ar    
  17 C17           -0.7367     1.8173     2.4739 C.ar    
  18 C18           -1.0089     2.8761     3.3309 C.ar    
  19 C19           -2.0640     3.7251     3.0654 C.ar    
  20 C20           -2.8537     3.5211     1.9406 C.ar    
  21 C21           -2.5811     2.4626     1.0835 C.ar    
  22 C22           -1.5227     1.6163     1.3468 C.ar    
  23 N23           -3.9228     4.3808     1.6718 N.3     
  24 C24            0.1888     6.5919    -0.1275 C.ar    
  25 C25           -0.8151     7.4846    -0.4358 C.ar    
  26 C26           -2.0765     7.0188    -0.7896 C.ar    
  27 C27           -2.3279     5.6520    -0.8338 C.ar    
  28 C28           -1.3252     4.7557    -0.5319 C.ar    
  29 C29           -3.6174     5.7520     2.1034 C.3     
  30 N30           -3.0921     7.9247    -1.1006 N.pl3   
  31 C31           -3.1991     9.1245    -0.3924 C.ar    
  32 C32           -4.7769     6.6747     1.7206 C.3     
  33 N33           -6.0133     6.1905     2.3503 N.3     
  34 C34           -6.3187     4.8193     1.9186 C.3     
  35 C35           -5.1592     3.8966     2.3015 C.3     
  36 C36           -2.4889     9.3129     0.7865 C.ar    
  37 N37           -2.5871    10.4435     1.4568 N.ar    
  38 C38           -3.3544    11.4326     1.0425 C.ar    
  39 C39           -4.0923    11.3202    -0.1216 C.ar    
  40 C40           -4.0152    10.1519    -0.8612 C.ar    
  41 C41           -3.4285    12.7034     1.8492 C.3     
  42 C42           -3.4379     2.2409    -0.1363 C.3     
  43 F43           -2.7214     1.4976    -1.0805 F       
  44 F44           -4.5944     1.5425     0.2269 F       
  45 F45           -3.7931     3.4766    -0.6876 F       
  46 H46            1.0516    -1.8295     4.4972 H       
  47 H47            3.2538    -1.4592     3.5055 H       
  48 H48            4.7102    -0.0793     2.0375 H       
  49 H49           -0.2305     3.0612     1.4256 H       
  50 H50            2.4885     5.2650    -1.0443 H       
  51 H51            4.2822     3.7080    -0.5263 H       
  52 H52           -0.3950     3.0346     4.2052 H       
  53 H53           -2.2760     4.5479     3.7321 H       
  54 H54           -1.3084     0.7955     0.6784 H       
  55 H55            1.1683     6.9542     0.1480 H       
  56 H56           -0.6220     8.5467    -0.4021 H       
  57 H57           -3.3084     5.2923    -1.1086 H       
  58 H58           -1.5207     3.6941    -0.5666 H       
  59 H59           -3.4794     5.7707     3.1845 H       
  60 H60           -2.7048     6.0925     1.6141 H       
  61 H61           -3.7235     7.7213    -1.8083 H       
  62 H62           -4.5654     7.6868     2.0655 H       
  63 H63           -4.8973     6.6771     0.6373 H       
  64 H64           -5.9535     6.2482     3.3559 H       
  65 H65           -7.2312     4.4788     2.4079 H       
  66 H66           -6.4566     4.8006     0.8375 H       
  67 H67           -5.3707     2.8845     1.9565 H       
  68 H68           -5.0388     3.8942     3.3848 H       
  69 H69           -1.8503     8.5250     1.1576 H       
  70 H70           -4.7183    12.1357    -0.4523 H       
  71 H71           -4.5805    10.0366    -1.7742 H       
  72 H72           -2.6591    13.3959     1.5077 H       
  73 H73           -4.4104    13.1588     1.7203 H       
  74 H74           -3.2696    12.4746     2.9030 H       
@<TRIPOS>BOND
   1    1    2 am
   2    1   10 1
   3    1   17 1
   4    2    3 1
   5    2   15 2
   6    3    4 2
   7    3   46 1
   8    4    5 1
   9    4   47 1
  10    5    6 ar
  11    5   10 ar
  12    6    7 ar
  13    6   48 1
  14    7    8 ar
  15    8    9 ar
  16    8   14 ar
  17    9   10 ar
  18    9   11 ar
  19   11   12 ar
  20   11   49 1
  21   12   13 ar
  22   12   16 1
  23   13   14 ar
  24   13   50 1
  25   14   51 1
  26   16   24 ar
  27   16   28 ar
  28   17   18 ar
  29   17   22 ar
  30   18   19 ar
  31   18   52 1
  32   19   20 ar
  33   19   53 1
  34   20   21 ar
  35   20   23 1
  36   21   22 ar
  37   21   42 1
  38   22   54 1
  39   23   29 1
  40   23   35 1
  41   24   25 ar
  42   24   55 1
  43   25   26 ar
  44   25   56 1
  45   26   27 ar
  46   26   30 1
  47   27   28 ar
  48   27   57 1
  49   28   58 1
  50   29   32 1
  51   29   59 1
  52   29   60 1
  53   30   31 1
  54   30   61 1
  55   31   36 ar
  56   31   40 ar
  57   32   33 1
  58   32   62 1
  59   32   63 1
  60   33   34 1
  61   33   64 1
  62   34   35 1
  63   34   65 1
  64   34   66 1
  65   35   67 1
  66   35   68 1
  67   36   37 ar
  68   36   69 1
  69   37   38 ar
  70   38   39 ar
  71   38   41 1
  72   39   40 ar
  73   39   70 1
  74   40   71 1
  75   41   72 1
  76   41   73 1
  77   41   74 1
  78   42   43 1
  79   42   44 1
  80   42   45 1

#	End of record

