#	Name: ASD09740642
#	Creating user name:	WinNT
#	Creation time:	15. 06. 2019 21:23

#	Modifying user name:	WinNT
#	Modification time:	15. 06. 2019 21:23

#	Program:	/corina/corina34_cracker 3.40 0067  02.08.2006

@<TRIPOS>MOLECULE
ASD09740642
  65   69    0    0    0
SMALL
NO_CHARGES


@<TRIPOS>ATOM
   1 N1            -0.3226     0.6258     0.4192 N.2     
   2 N2            -0.5361    -0.5819     0.7127 N.2     
   3 C3             0.9023     1.0674     0.5235 C.2     
   4 S4             1.9134    -0.2683     1.0782 S.3     
   5 C5             0.4828    -1.3012     1.0989 C.2     
   6 C6             1.3601     2.4415     0.2292 C.ar    
   7 C7             0.4486     3.4015    -0.2030 C.ar    
   8 C8             2.7070     2.7791     0.3902 C.ar    
   9 C9             3.1395     4.0590     0.1172 C.ar    
  10 C10            2.2413     5.0220    -0.3194 C.ar    
  11 C11            0.8859     4.6960    -0.4792 C.ar    
  12 O12            2.6723     6.2804    -0.5863 O.3     
  13 C13            4.0740     6.5268    -0.4581 C.3     
  14 C14            4.4611     7.7305    -1.3197 C.3     
  15 C15            4.4087     6.8189     1.0060 C.3     
  16 C16           -0.0434     5.6877    -0.9302 C.1     
  17 N17           -0.7807     6.4744    -1.2880 N.1     
  18 C18            0.4447    -2.7275     1.4855 C.ar    
  19 C19           -0.7642    -3.4285     1.4556 C.ar    
  20 C20           -0.7930    -4.7597     1.8171 C.ar    
  21 C21            0.3750    -5.3957     2.2081 C.ar    
  22 C22            1.5731    -4.7066     2.2396 C.ar    
  23 C23            1.6161    -3.3770     1.8750 C.ar    
  24 C24           -2.1549    -2.9703     1.0726 C.3     
  25 C25           -2.9519    -4.2678     0.8200 C.3     
  26 C26           -2.2062    -5.2907     1.7030 C.3     
  27 N27           -2.8285    -5.3684     3.0270 N.am    
  28 C28           -2.7026    -6.4884     3.7661 C.2     
  29 O29           -2.1565    -7.4682     3.2970 O.2     
  30 N30           -3.1822    -6.5223     5.0252 N.am    
  31 C31           -3.9301    -5.3821     5.5724 C.3     
  32 C32           -3.2814    -4.9550     6.8929 C.3     
  33 C33           -3.2003    -6.1618     7.8305 C.3     
  34 C34           -2.3296    -7.2473     7.1936 C.3     
  35 C35           -2.9723    -7.7026     5.8746 C.3     
  36 O36           -2.6252    -5.7596     9.0753 O.3     
  37 H37           -0.5932     3.1440    -0.3242 H       
  38 H38            3.4114     2.0342     0.7302 H       
  39 H39            4.1814     4.3133     0.2441 H       
  40 H40            4.6290     5.6492    -0.7896 H       
  41 H41            3.9061     8.6081    -0.9882 H       
  42 H42            5.5303     7.9185    -1.2219 H       
  43 H43            4.2227     7.5224    -2.3627 H       
  44 H44            4.1330     5.9614     1.6198 H       
  45 H45            5.4779     7.0069     1.1037 H       
  46 H46            3.8537     7.6965     1.3375 H       
  47 H47            0.3487    -6.4378     2.4906 H       
  48 H48            2.4775    -5.2113     2.5458 H       
  49 H49            2.5519    -2.8384     1.8995 H       
  50 H50           -2.6042    -2.4031     1.8878 H       
  51 H51           -2.1180    -2.3664     0.1660 H       
  52 H52           -3.9864    -4.1567     1.1448 H       
  53 H53           -2.9030    -4.5543    -0.2306 H       
  54 H54           -2.2046    -6.2712     1.2269 H       
  55 H55           -3.3311    -4.6138     3.3717 H       
  56 H56           -3.9005    -4.5528     4.8657 H       
  57 H57           -4.9644    -5.6757     5.7515 H       
  58 H58           -2.2777    -4.5765     6.6994 H       
  59 H59           -3.8824    -4.1732     7.3572 H       
  60 H60           -4.2021    -6.5550     8.0038 H       
  61 H61           -1.3349    -6.8472     6.9974 H       
  62 H62           -2.2532    -8.0970     7.8720 H       
  63 H63           -3.9275    -8.1854     6.0811 H       
  64 H64           -2.3087    -8.4030     5.3675 H       
  65 H65           -2.5428    -6.4756     9.7201 H       
@<TRIPOS>BOND
   1    1    2 1
   2    1    3 2
   3    2    5 2
   4    3    4 1
   5    3    6 1
   6    4    5 1
   7    5   18 1
   8    6    7 ar
   9    6    8 ar
  10    7   11 ar
  11    7   37 1
  12    8    9 ar
  13    8   38 1
  14    9   10 ar
  15    9   39 1
  16   10   11 ar
  17   10   12 1
  18   11   16 1
  19   12   13 1
  20   13   14 1
  21   13   15 1
  22   13   40 1
  23   14   41 1
  24   14   42 1
  25   14   43 1
  26   15   44 1
  27   15   45 1
  28   15   46 1
  29   16   17 3
  30   18   19 ar
  31   18   23 ar
  32   19   20 ar
  33   19   24 1
  34   20   21 ar
  35   20   26 1
  36   21   22 ar
  37   21   47 1
  38   22   23 ar
  39   22   48 1
  40   23   49 1
  41   24   25 1
  42   24   50 1
  43   24   51 1
  44   25   26 1
  45   25   52 1
  46   25   53 1
  47   26   27 1
  48   26   54 1
  49   27   28 am
  50   27   55 1
  51   28   29 2
  52   28   30 am
  53   30   31 1
  54   30   35 1
  55   31   32 1
  56   31   56 1
  57   31   57 1
  58   32   33 1
  59   32   58 1
  60   32   59 1
  61   33   34 1
  62   33   36 1
  63   33   60 1
  64   34   35 1
  65   34   61 1
  66   34   62 1
  67   35   63 1
  68   35   64 1
  69   36   65 1

#	End of record

