#	Name: ASD09116091
#	Creating user name:	WinNT
#	Creation time:	15. 06. 2019 21:20

#	Modifying user name:	WinNT
#	Modification time:	15. 06. 2019 21:20

#	Program:	/corina/corina34_cracker 3.40 0067  02.08.2006

@<TRIPOS>MOLECULE
ASD09116091
  68   74    0    0    0
SMALL
NO_CHARGES


@<TRIPOS>ATOM
   1 C1             6.4826    -1.7645     1.8190 C.ar    
   2 N2             5.3854    -2.5890     1.5808 N.pl3   
   3 N3             4.0967    -2.1855     1.1952 N.2     
   4 C4             3.3731    -3.2728     1.0793 C.2     
   5 N5             4.1306    -4.3372     1.3692 N.2     
   6 C6             5.3502    -3.9455     1.6695 C.2     
   7 N7             6.4050    -4.7656     2.0209 N.pl3   
   8 N8             2.0279    -3.3135     0.7128 N.pl3   
   9 C9             6.3717    -0.3732     1.6817 C.ar    
  10 N10            7.6481    -2.2822     2.1848 N.ar    
  11 C11            8.6924    -1.5043     2.4125 C.ar    
  12 N12            8.6393    -0.2002     2.2926 N.ar    
  13 C13            7.4951     0.4216     1.9298 C.ar    
  14 C14            1.3906    -4.5435     0.5294 C.ar    
  15 C15            2.0984    -5.6490     0.0809 C.ar    
  16 C16            1.4648    -6.8635    -0.0991 C.ar    
  17 C17            0.1070    -7.0122     0.0980 C.ar    
  18 C18           -0.5873    -5.8904     0.5813 C.ar    
  19 C19            0.0347    -4.6880     0.7978 C.ar    
  20 Cl20          10.1917    -2.2383     2.8891 Cl      
  21 C21            7.2355     1.7892     1.7488 C.2     
  22 C22            6.0003     2.0979     1.3868 C.2     
  23 S23            5.0172     0.6517     1.2303 S.3     
  24 C24            8.2962     2.8399     1.9543 C.3     
  25 C25            2.3272    -8.0585    -0.4472 C.3     
  26 C26            2.4782    -9.0099     0.7375 C.3     
  27 C27            1.1276    -9.4889     1.2459 C.3     
  28 N28            0.5130   -10.2623     0.1866 N.3     
  29 C29           -0.0926    -9.3840    -0.8132 C.3     
  30 C30           -0.7960    -8.1854    -0.1912 C.3     
  31 C31           -0.4758   -11.2041     0.7281 C.3     
  32 C32           -1.1074   -12.0364    -0.4111 C.3     
  33 C33           -0.7334   -13.5124    -0.0750 C.3     
  34 C34            0.2204   -12.2555     1.6452 C.3     
  35 C35            0.8024   -13.5941    -0.3319 C.3     
  36 C36           -0.7632   -13.4692     1.4936 C.3     
  37 C37            1.4340   -12.7618     0.8073 C.3     
  38 H38            6.2791    -5.7265     2.0630 H       
  39 H39            7.2715    -4.3806     2.2255 H       
  40 H40            1.5348    -2.4880     0.5853 H       
  41 H41            3.1539    -5.5595    -0.1298 H       
  42 H42           -1.6427    -5.9792     0.7927 H       
  43 H43           -0.5329    -3.8478     1.1697 H       
  44 H44            5.6461     3.1026     1.2092 H       
  45 H45            8.8221     3.0137     1.0155 H       
  46 H46            7.8295     3.7672     2.2864 H       
  47 H47            9.0041     2.4986     2.7095 H       
  48 H48            1.8707    -8.5959    -1.2783 H       
  49 H49            3.3142    -7.7082    -0.7494 H       
  50 H50            3.0690    -9.8724     0.4288 H       
  51 H51            3.0002    -8.4948     1.5439 H       
  52 H52            1.2643   -10.1132     2.1290 H       
  53 H53            0.4995    -8.6328     1.4920 H       
  54 H54            0.6871    -9.0251    -1.4850 H       
  55 H55           -0.8175    -9.9565    -1.3918 H       
  56 H56           -1.2599    -8.5031     0.7426 H       
  57 H57           -1.5835    -7.8566    -0.8694 H       
  58 H58           -1.2478   -10.6678     1.2799 H       
  59 H59           -2.1901   -11.9110    -0.4181 H       
  60 H60           -0.6842   -11.7468    -1.3730 H       
  61 H61           -1.3388   -14.2792    -0.5583 H       
  62 H62            0.4332   -11.9324     2.6642 H       
  63 H63            1.1418   -14.6286    -0.2799 H       
  64 H64            1.0491   -13.1606    -1.3011 H       
  65 H65           -1.7574   -13.2401     1.8774 H       
  66 H66           -0.3595   -14.3802     1.9354 H       
  67 H67            1.9913   -11.9190     0.3982 H       
  68 H68            2.0840   -13.3871     1.4194 H       
@<TRIPOS>BOND
   1    1    2 1
   2    1    9 ar
   3    1   10 ar
   4    2    3 1
   5    2    6 1
   6    3    4 2
   7    4    5 1
   8    4    8 1
   9    5    6 2
  10    6    7 1
  11    7   38 1
  12    7   39 1
  13    8   14 1
  14    8   40 1
  15    9   13 ar
  16    9   23 1
  17   10   11 ar
  18   11   12 ar
  19   11   20 1
  20   12   13 ar
  21   13   21 1
  22   14   15 ar
  23   14   19 ar
  24   15   16 ar
  25   15   41 1
  26   16   17 ar
  27   16   25 1
  28   17   18 ar
  29   17   30 1
  30   18   19 ar
  31   18   42 1
  32   19   43 1
  33   21   22 2
  34   21   24 1
  35   22   23 1
  36   22   44 1
  37   24   45 1
  38   24   46 1
  39   24   47 1
  40   25   26 1
  41   25   48 1
  42   25   49 1
  43   26   27 1
  44   26   50 1
  45   26   51 1
  46   27   28 1
  47   27   52 1
  48   27   53 1
  49   28   29 1
  50   28   31 1
  51   29   30 1
  52   29   54 1
  53   29   55 1
  54   30   56 1
  55   30   57 1
  56   31   32 1
  57   31   34 1
  58   31   58 1
  59   32   33 1
  60   32   59 1
  61   32   60 1
  62   33   35 1
  63   33   36 1
  64   33   61 1
  65   34   36 1
  66   34   37 1
  67   34   62 1
  68   35   37 1
  69   35   63 1
  70   35   64 1
  71   36   65 1
  72   36   66 1
  73   37   67 1
  74   37   68 1

#	End of record

