#	Name: ASD05720146
#	Creating user name:	WinNT
#	Creation time:	15. 06. 2019 21:01

#	Modifying user name:	WinNT
#	Modification time:	15. 06. 2019 21:01

#	Program:	/corina/corina34_cracker 3.40 0067  02.08.2006

@<TRIPOS>MOLECULE
ASD05720146
  36   39    0    0    0
SMALL
NO_CHARGES


@<TRIPOS>ATOM
   1 O1            -0.0161     1.3334     0.0094 O.3     
   2 C2             0.0021    -0.0041     0.0020 C.2     
   3 N3             1.2348    -0.5293    -0.0126 N.am    
   4 C4             2.2183     0.5645    -0.0161 C.3     
   5 C5             1.3508     1.8379    -0.0010 C.3     
   6 O6            -1.0069    -0.6808     0.0087 O.2     
   7 C7             3.0621     0.5136    -1.2636 C.ar    
   8 C8             4.0526     1.4562    -1.4670 C.ar    
   9 C9             4.8266     1.4096    -2.6114 C.ar    
  10 C10            4.6105     0.4200    -3.5521 C.ar    
  11 C11            3.6207    -0.5231    -3.3483 C.ar    
  12 C12            2.8495    -0.4791    -2.2019 C.ar    
  13 C13            3.0990     0.4993     1.2333 C.3     
  14 C14            3.0998    -3.5861    -0.0446 C.2     
  15 N15            2.7924    -2.2814    -0.0357 N.2     
  16 C16            1.5350    -1.8858    -0.0220 C.2     
  17 C17            0.4938    -2.8374    -0.0165 C.2     
  18 C18            0.7983    -4.1544    -0.0253 C.2     
  19 N19            2.1111    -4.5364    -0.0395 N.pl3   
  20 N20            2.7293    -5.7921    -0.0510 N.2     
  21 C21            4.0323    -5.6237    -0.0626 C.2     
  22 C22            4.3115    -4.2644    -0.0648 C.2     
  23 Br23           6.0310    -3.4778    -0.0879 Br      
  24 H24            1.5314     2.4339    -0.8956 H       
  25 H25            1.5485     2.4243     0.8964 H       
  26 H26            4.2214     2.2294    -0.7321 H       
  27 H27            5.5999     2.1465    -2.7707 H       
  28 H28            5.2148     0.3840    -4.4465 H       
  29 H29            3.4517    -1.2961    -4.0834 H       
  30 H30            2.0787    -1.2181    -2.0409 H       
  31 H31            3.6293    -0.4528     1.2547 H       
  32 H32            3.8201     1.3165     1.2125 H       
  33 H33            2.4751     0.5878     2.1227 H       
  34 H34           -0.5374    -2.5166    -0.0049 H       
  35 H35            0.0136    -4.8964    -0.0208 H       
  36 H36            4.7671    -6.4151    -0.0732 H       
@<TRIPOS>BOND
   1    1    2 1
   2    1    5 1
   3    2    3 am
   4    2    6 2
   5    3    4 1
   6    3   16 1
   7    4    5 1
   8    4    7 1
   9    4   13 1
  10    5   24 1
  11    5   25 1
  12    7    8 ar
  13    7   12 ar
  14    8    9 ar
  15    8   26 1
  16    9   10 ar
  17    9   27 1
  18   10   11 ar
  19   10   28 1
  20   11   12 ar
  21   11   29 1
  22   12   30 1
  23   13   31 1
  24   13   32 1
  25   13   33 1
  26   14   15 1
  27   14   19 1
  28   14   22 2
  29   15   16 2
  30   16   17 1
  31   17   18 2
  32   17   34 1
  33   18   19 1
  34   18   35 1
  35   19   20 1
  36   20   21 2
  37   21   22 1
  38   21   36 1
  39   22   23 1

#	End of record

