#	Name: ASD01720131
#	Creating user name:	WinNT
#	Creation time:	15. 06. 2019 19:23

#	Modifying user name:	WinNT
#	Modification time:	15. 06. 2019 19:23

#	Program:	/corina/corina34_cracker 3.40 0067  02.08.2006

@<TRIPOS>MOLECULE
ASD01720131
  92   96    0    0    0
SMALL
NO_CHARGES


@<TRIPOS>ATOM
   1 C1             1.3241     8.8736     0.7996 C.ar    
   2 C2             0.1825     8.4077     0.1809 C.ar    
   3 C3             0.2875     7.5079    -0.8636 C.ar    
   4 C4             1.5317     7.0867    -1.2837 C.ar    
   5 C5             2.6837     7.5587    -0.6659 C.ar    
   6 C6             2.5770     8.4462     0.3811 C.ar    
   7 C7             3.7827     8.9736     1.1175 C.3     
   8 C8             4.0081     7.0762    -1.1960 C.3     
   9 C9             5.1118     7.2665    -0.1567 C.3     
  10 N10            5.0018     8.6355     0.3752 N.am    
  11 C11            5.9822     9.5412     0.1884 C.2     
  12 C12            5.6643    11.0139     0.2245 C.3     
  13 O13            7.1202     9.1712    -0.0087 O.2     
  14 C14            6.9440    11.8178    -0.0141 C.3     
  15 C15            6.6262    13.2905     0.0220 C.2     
  16 C16            7.6967    14.2795    -0.1820 C.ar    
  17 O17            5.4884    13.6605     0.2191 O.2     
  18 C18            9.7115    16.1412    -0.5669 C.ar    
  19 C19           10.0066    14.7895    -0.6060 C.ar    
  20 C20            9.0092    13.8567    -0.4154 C.ar    
  21 C21            7.4058    15.6471    -0.1492 C.ar    
  22 C22            8.4142    16.5675    -0.3417 C.ar    
  23 C23            6.4595     7.0785    -0.8043 C.2     
  24 N24            7.1624     5.9502    -0.5822 N.am    
  25 O25            6.9117     7.9426    -1.5252 O.2     
  26 C26            8.4726     5.7675    -1.2117 C.3     
  27 C27            8.7687     4.2952    -1.3372 C.2     
  28 C28            9.5489     6.4327    -0.3515 C.3     
  29 N29            9.9272     3.8857    -1.8909 N.am    
  30 O30            7.9646     3.4789    -0.9399 O.2     
  31 C31           10.2151     2.4544    -2.0128 C.3     
  32 C32           11.5834     2.2636    -2.6703 C.3     
  33 C33           11.9339     0.7980    -2.6845 C.ar    
  34 C34           11.5382     2.7831    -4.0842 C.ar    
  35 C35           10.6303     2.2580    -4.9847 C.ar    
  36 C36           10.5889     2.7345    -6.2817 C.ar    
  37 C37           11.4550     3.7363    -6.6780 C.ar    
  38 C38           12.3622     4.2620    -5.7772 C.ar    
  39 C39           12.4008     3.7885    -4.4790 C.ar    
  40 C40           11.2910    -1.4846    -3.0145 C.ar    
  41 C41           10.9695    -0.1402    -3.0014 C.ar    
  42 C42           13.2213     0.3923    -2.3862 C.ar    
  43 C43           13.5428    -0.9521    -2.3992 C.ar    
  44 C44           12.5768    -1.8908    -2.7101 C.ar    
  45 C45            9.3192     7.9452    -0.3266 C.3     
  46 C46           10.3955     8.6104     0.5336 C.3     
  47 C47           10.1658    10.1229     0.5585 C.3     
  48 N48           11.1992    10.7616     1.3844 N.3     
  49 H49            1.2428     9.5797     1.6128 H       
  50 H50           -0.7892     8.7440     0.5113 H       
  51 H51           -0.6025     7.1356    -1.3490 H       
  52 H52            1.6116     6.3838    -2.0997 H       
  53 H53            3.7046    10.0566     1.2126 H       
  54 H54            3.8263     8.5251     2.1100 H       
  55 H55            3.9301     6.0182    -1.4464 H       
  56 H56            4.2611     7.6388    -2.0946 H       
  57 H57            4.9862     6.5451     0.6507 H       
  58 H58            4.9378    11.2480    -0.5536 H       
  59 H59            5.2493    11.2723     1.1987 H       
  60 H60            7.6706    11.5838     0.7640 H       
  61 H61            7.3591    11.5595    -0.9883 H       
  62 H62           10.4971    16.8670    -0.7170 H       
  63 H63           11.0213    14.4646    -0.7826 H       
  64 H64            9.2410    12.8023    -0.4458 H       
  65 H65            6.3938    15.9813     0.0260 H       
  66 H66            8.1919    17.6240    -0.3123 H       
  67 H67            6.8008     5.2591    -0.0056 H       
  68 H68            8.4664     6.2226    -2.2022 H       
  69 H69            9.4962     6.0405     0.6641 H       
  70 H70           10.5321     6.2215    -0.7721 H       
  71 H71           10.5704     4.5385    -2.2086 H       
  72 H72           10.2213     1.9994    -1.0224 H       
  73 H73            9.4483     1.9805    -2.6256 H       
  74 H74           12.3374     2.8120    -2.1056 H       
  75 H75            9.9537     1.4753    -4.6751 H       
  76 H76            9.8801     2.3238    -6.9855 H       
  77 H77           11.4231     4.1081    -7.6915 H       
  78 H78           13.0392     5.0445    -6.0870 H       
  79 H79           13.1071     4.2018    -3.7743 H       
  80 H80           10.5373    -2.2177    -3.2614 H       
  81 H81            9.9647     0.1771    -3.2385 H       
  82 H82           13.9760     1.1257    -2.1433 H       
  83 H83           14.5487    -1.2690    -2.1668 H       
  84 H84           12.8280    -2.9411    -2.7203 H       
  85 H85            9.3719     8.3375    -1.3422 H       
  86 H86            8.3360     8.1565     0.0939 H       
  87 H87           10.3428     8.2181     1.5492 H       
  88 H88           11.3787     8.3991     0.1130 H       
  89 H89           10.2185    10.5152    -0.4571 H       
  90 H90            9.1826    10.3342     0.9790 H       
  91 H91           11.0693    11.7616     1.4167 H       
  92 H92           11.2135    10.3686     2.3136 H       
@<TRIPOS>BOND
   1    1    2 ar
   2    1    6 ar
   3    1   49 1
   4    2    3 ar
   5    2   50 1
   6    3    4 ar
   7    3   51 1
   8    4    5 ar
   9    4   52 1
  10    5    6 ar
  11    5    8 1
  12    6    7 1
  13    7   10 1
  14    7   53 1
  15    7   54 1
  16    8    9 1
  17    8   55 1
  18    8   56 1
  19    9   10 1
  20    9   23 1
  21    9   57 1
  22   10   11 am
  23   11   12 1
  24   11   13 2
  25   12   14 1
  26   12   58 1
  27   12   59 1
  28   14   15 1
  29   14   60 1
  30   14   61 1
  31   15   16 1
  32   15   17 2
  33   16   21 ar
  34   16   20 ar
  35   18   19 ar
  36   18   22 ar
  37   18   62 1
  38   19   20 ar
  39   19   63 1
  40   20   64 1
  41   21   22 ar
  42   21   65 1
  43   22   66 1
  44   23   24 am
  45   23   25 2
  46   24   26 1
  47   24   67 1
  48   26   27 1
  49   26   28 1
  50   26   68 1
  51   27   29 am
  52   27   30 2
  53   28   45 1
  54   28   69 1
  55   28   70 1
  56   29   31 1
  57   29   71 1
  58   31   32 1
  59   31   72 1
  60   31   73 1
  61   32   33 1
  62   32   34 1
  63   32   74 1
  64   33   42 ar
  65   33   41 ar
  66   34   35 ar
  67   34   39 ar
  68   35   36 ar
  69   35   75 1
  70   36   37 ar
  71   36   76 1
  72   37   38 ar
  73   37   77 1
  74   38   39 ar
  75   38   78 1
  76   39   79 1
  77   40   41 ar
  78   40   44 ar
  79   40   80 1
  80   41   81 1
  81   42   43 ar
  82   42   82 1
  83   43   44 ar
  84   43   83 1
  85   44   84 1
  86   45   46 1
  87   45   85 1
  88   45   86 1
  89   46   47 1
  90   46   87 1
  91   46   88 1
  92   47   48 1
  93   47   89 1
  94   47   90 1
  95   48   91 1
  96   48   92 1

#	End of record

