#	Name: ASD06170108
#	Creating user name:	WinNT
#	Creation time:	15. 06. 2019 21:05

#	Modifying user name:	WinNT
#	Modification time:	15. 06. 2019 21:05

#	Program:	/corina/corina34_cracker 3.40 0067  02.08.2006

@<TRIPOS>MOLECULE
ASD06170108
  68   72    0    0    0
SMALL
NO_CHARGES


@<TRIPOS>ATOM
   1 N1            -0.1243     1.3699    -0.3627 N.pl3   
   2 N2            -0.0514     0.0152    -0.0250 N.am    
   3 C3             1.2370    -0.2959     0.2273 C.2     
   4 C4             2.0111     0.9406     0.0346 C.2     
   5 C5             1.1050     1.9185    -0.3264 C.2     
   6 C6             3.4610     1.1031     0.1956 C.2     
   7 O7             3.9766     2.1886     0.0042 O.2     
   8 N8             4.2213     0.0500     0.5553 N.am    
   9 C9            -1.1329    -0.8693     0.0408 C.ar    
  10 C10           -2.0911    -0.8729    -0.9646 C.ar    
  11 C11           -3.1575    -1.7479    -0.8970 C.ar    
  12 C12           -3.2722    -2.6193     0.1706 C.ar    
  13 C13           -2.3199    -2.6182     1.1733 C.ar    
  14 C14           -1.2480    -1.7498     1.1087 C.ar    
  15 O15            1.6731    -1.3849     0.5510 O.2     
  16 C16            1.4364     3.3570    -0.6296 C.3     
  17 C17            5.6174     0.1586     0.5459 C.ar    
  18 C18            6.2191     1.3955     0.7385 C.ar    
  19 C19            7.5972     1.5016     0.7296 C.ar    
  20 C20            8.3794     0.3706     0.5279 C.ar    
  21 C21            7.7776    -0.8635     0.3357 C.ar    
  22 C22            6.4004    -0.9710     0.3498 C.ar    
  23 O23            9.7354     0.4747     0.5185 O.3     
  24 N24           11.6345     1.0724     4.1303 N.ar    
  25 C25           10.3236     1.0584     4.0682 C.ar    
  26 C26            9.6493     0.8602     2.8702 C.ar    
  27 C27           10.3667     0.6708     1.7019 C.ar    
  28 C28           11.7779     0.6877     1.7806 C.ar    
  29 C29           12.5722     0.5034     0.6394 C.ar    
  30 C30           13.9286     0.5255     0.7476 C.ar    
  31 C31           14.5440     0.7302     1.9858 C.ar    
  32 C32           13.7920     0.9137     3.1241 C.ar    
  33 C33           12.3907     0.8959     3.0403 C.ar    
  34 O34           15.8998     0.7479     2.0669 O.3     
  35 C35           16.6250     0.5512     0.8514 C.3     
  36 F36            8.1836     2.7043     0.9164 F       
  37 C37           -1.3547     2.0850    -0.7105 C.3     
  38 C38           -1.9821     2.6672     0.5577 C.3     
  39 C39           -3.1969     3.5178     0.1816 C.3     
  40 N40           -0.9975     3.5016     1.2509 N.2     
  41 N41           -1.2457     3.9502     2.2512 N.1     
  42 N42           -1.4939     4.3987     3.2515 N.pl3   
  43 H43            3.8015    -0.7832     0.8207 H       
  44 H44           -2.0025    -0.1921    -1.7983 H       
  45 H45           -3.9029    -1.7512    -1.6785 H       
  46 H46           -4.1075    -3.3020     0.2215 H       
  47 H47           -2.4123    -3.3001     2.0057 H       
  48 H48           -0.5024    -1.7522     1.8901 H       
  49 H49            1.3799     3.9439     0.2872 H       
  50 H50            2.4445     3.4190    -1.0393 H       
  51 H51            0.7243     3.7486    -1.3561 H       
  52 H52            5.6106     2.2739     0.8949 H       
  53 H53            8.3859    -1.7420     0.1790 H       
  54 H54            5.9325    -1.9334     0.2041 H       
  55 H55            9.7534     1.2052     4.9736 H       
  56 H56            8.5695     0.8532     2.8506 H       
  57 H57           12.1085     0.3440    -0.3228 H       
  58 H58           14.5367     0.3828    -0.1335 H       
  59 H59           14.2772     1.0705     4.0762 H       
  60 H60           16.3695    -0.4206     0.4290 H       
  61 H61           16.3638     1.3360     0.1414 H       
  62 H62           17.6949     0.5883     1.0566 H       
  63 H63           -1.1217     2.8928    -1.4043 H       
  64 H64           -2.0561     1.3947    -1.1789 H       
  65 H65           -2.2961     1.8551     1.2135 H       
  66 H66           -3.9295     2.8969    -0.3342 H       
  67 H67           -3.6439     3.9325     1.0851 H       
  68 H68           -2.8829     4.3299    -0.4742 H       
@<TRIPOS>BOND
   1    1    2 1
   2    1    5 1
   3    1   37 1
   4    2    3 am
   5    2    9 1
   6    3    4 1
   7    3   15 2
   8    4    5 2
   9    4    6 1
  10    5   16 1
  11    6    7 2
  12    6    8 am
  13    8   17 1
  14    8   43 1
  15    9   10 ar
  16    9   14 ar
  17   10   11 ar
  18   10   44 1
  19   11   12 ar
  20   11   45 1
  21   12   13 ar
  22   12   46 1
  23   13   14 ar
  24   13   47 1
  25   14   48 1
  26   16   49 1
  27   16   50 1
  28   16   51 1
  29   17   18 ar
  30   17   22 ar
  31   18   19 ar
  32   18   52 1
  33   19   20 ar
  34   19   36 1
  35   20   21 ar
  36   20   23 1
  37   21   22 ar
  38   21   53 1
  39   22   54 1
  40   23   27 1
  41   24   25 ar
  42   24   33 ar
  43   25   26 ar
  44   25   55 1
  45   26   27 ar
  46   26   56 1
  47   27   28 ar
  48   28   29 ar
  49   28   33 ar
  50   29   30 ar
  51   29   57 1
  52   30   31 ar
  53   30   58 1
  54   31   32 ar
  55   31   34 1
  56   32   33 ar
  57   32   59 1
  58   34   35 1
  59   35   60 1
  60   35   61 1
  61   35   62 1
  62   37   38 1
  63   37   63 1
  64   37   64 1
  65   38   39 1
  66   38   40 1
  67   38   65 1
  68   39   66 1
  69   39   67 1
  70   39   68 1
  71   40   41 2
  72   41   42 2

#	End of record

