#	Name: ASD01880042
#	Creating user name:	WinNT
#	Creation time:	15. 06. 2019 19:39

#	Modifying user name:	WinNT
#	Modification time:	15. 06. 2019 19:39

#	Program:	/corina/corina34_cracker 3.40 0067  02.08.2006

@<TRIPOS>MOLECULE
ASD01880042
  50   51    0    0    0
SMALL
NO_CHARGES


@<TRIPOS>ATOM
   1 C1            -0.0167     1.3832     0.0096 C.ar    
   2 C2             0.0021    -0.0041     0.0020 C.ar    
   3 C3            -1.1903    -0.7238     0.0096 C.ar    
   4 C4            -2.3894    -0.0733     0.0250 C.ar    
   5 C5            -2.4280     1.3279     0.0333 C.ar    
   6 C6            -1.2255     2.0574     0.0306 C.ar    
   7 C7            -3.7142     2.0288     0.0499 C.2     
   8 C8            -5.0003     1.2434     0.0580 C.3     
   9 C9            -6.1872     2.2086     0.0750 C.3     
  10 C10           -7.4907     1.4162    -0.0425 C.3     
  11 C11           -6.1855     2.9959     1.3870 C.3     
  12 O12           -1.2502     3.4132     0.0391 O.3     
  13 O13            1.1880    -0.6629    -0.0133 O.3     
  14 C14            1.1367    -2.0909    -0.0205 C.3     
  15 C15            2.5599    -2.6523    -0.0376 C.3     
  16 C16            2.5050    -4.1813    -0.0453 C.3     
  17 S17            4.1924    -4.8468    -0.0657 S.3     
  18 C18            3.9312    -6.5893    -0.0724 C.ar    
  19 C19            5.0095    -7.4750    -0.0879 C.ar    
  20 C20            4.7621    -8.8312    -0.0927 C.ar    
  21 N21            3.5257    -9.2938    -0.0834 N.ar    
  22 C22            2.4793    -8.4891    -0.0687 C.ar    
  23 C23            2.6406    -7.1199    -0.0566 C.ar    
  24 O24           -3.7440     3.2418     0.0571 O.2     
  25 C25            1.2775     2.1551     0.0014 C.3     
  26 H26           -1.1656    -1.8035     0.0028 H       
  27 H27           -3.3097    -0.6384     0.0304 H       
  28 H28           -5.0512     0.6206    -0.8351 H       
  29 H29           -5.0339     0.6104     0.9447 H       
  30 H30           -6.1055     2.9000    -0.7637 H       
  31 H31           -7.5725     0.7248     0.7962 H       
  32 H32           -8.3364     2.1038    -0.0303 H       
  33 H33           -7.4920     0.8553    -0.9771 H       
  34 H34           -5.2569     3.5605     1.4707 H       
  35 H35           -7.0312     3.6836     1.3991 H       
  36 H36           -6.2673     2.3046     2.2257 H       
  37 H37           -1.2520     3.8011     0.9249 H       
  38 H38            0.6190    -2.4404     0.8728 H       
  39 H39            0.6013    -2.4309    -0.9070 H       
  40 H40            3.0776    -2.3028    -0.9310 H       
  41 H41            3.0953    -2.3124     0.8489 H       
  42 H42            1.9874    -4.5307     0.8480 H       
  43 H43            1.9697    -4.5212    -0.9318 H       
  44 H44            6.0234    -7.1032    -0.0963 H       
  45 H45            5.5904    -9.5241    -0.1047 H       
  46 H46            1.4842    -8.9087    -0.0615 H       
  47 H47            1.7802    -6.4672    -0.0446 H       
  48 H48            1.5797     2.3468    -1.0281 H       
  49 H49            1.1386     3.1028     0.5217 H       
  50 H50            2.0503     1.5741     0.5048 H       
@<TRIPOS>BOND
   1    1    2 ar
   2    1   25 1
   3    1    6 ar
   4    2    3 ar
   5    2   13 1
   6    3    4 ar
   7    3   26 1
   8    4    5 ar
   9    4   27 1
  10    5    6 ar
  11    5    7 1
  12    6   12 1
  13    7    8 1
  14    7   24 2
  15    8    9 1
  16    8   28 1
  17    8   29 1
  18    9   10 1
  19    9   11 1
  20    9   30 1
  21   10   31 1
  22   10   32 1
  23   10   33 1
  24   11   34 1
  25   11   35 1
  26   11   36 1
  27   12   37 1
  28   13   14 1
  29   14   15 1
  30   14   38 1
  31   14   39 1
  32   15   16 1
  33   15   40 1
  34   15   41 1
  35   16   17 1
  36   16   42 1
  37   16   43 1
  38   17   18 1
  39   18   19 ar
  40   18   23 ar
  41   19   20 ar
  42   19   44 1
  43   20   21 ar
  44   20   45 1
  45   21   22 ar
  46   22   23 ar
  47   22   46 1
  48   23   47 1
  49   25   48 1
  50   25   49 1
  51   25   50 1

#	End of record

