#	Name: ASD01814695
#	Creating user name:	WinNT
#	Creation time:	15. 06. 2019 19:32

#	Modifying user name:	WinNT
#	Modification time:	15. 06. 2019 19:32

#	Program:	/corina/corina34_cracker 3.40 0067  02.08.2006

@<TRIPOS>MOLECULE
ASD01814695
  50   53    0    0    0
SMALL
NO_CHARGES


@<TRIPOS>ATOM
   1 N1            -0.7459     2.3734     2.8871 N.2     
   2 C2            -0.9449     1.3772     3.7177 C.2     
   3 C3             0.0051     1.0795     4.7054 C.2     
   4 C4             1.1307     1.8290     4.7951 C.2     
   5 N5             1.3138     2.8600     3.9187 N.pl3   
   6 C6             0.3628     3.1213     2.9661 C.2     
   7 N7             2.3430     3.7932     3.7572 N.2     
   8 C8             2.0412     4.5915     2.7533 C.2     
   9 C9             0.8162     4.2102     2.2316 C.2     
  10 C10            2.5541     5.7740     1.9686 C.3     
  11 N11            1.5629     6.0877     0.9349 N.am    
  12 C12            0.4689     5.1226     1.0835 C.3     
  13 C13            1.6412     7.0769     0.0228 C.2     
  14 C14            2.7599     8.0375     0.0706 C.ar    
  15 C15            2.5140     9.4124    -0.0478 C.ar    
  16 C16            4.0696     7.5826     0.2397 C.ar    
  17 C17            5.1103     8.4852     0.2835 C.ar    
  18 C18            4.8637     9.8426     0.1604 C.ar    
  19 C19            3.5731    10.3063    -0.0016 C.ar    
  20 O20            0.7898     7.1775    -0.8395 O.2     
  21 O21            1.2456     9.8664    -0.2074 O.3     
  22 C22           -0.2239    -0.0643     5.6595 C.3     
  23 C23            1.0722    11.2803    -0.3210 C.3     
  24 C24           -0.4142    11.5995    -0.4935 C.3     
  25 N25           -1.1420    11.2153     0.7233 N.3     
  26 C26           -0.7360    12.0469     1.8642 C.3     
  27 C27           -2.5941    11.2840     0.5120 C.3     
  28 H28           -1.8444     0.7844     3.6407 H       
  29 H29            1.8726     1.6140     5.5498 H       
  30 H30            2.6804     6.6302     2.6312 H       
  31 H31            3.5069     5.5228     1.5026 H       
  32 H32            0.3648     4.5409     0.1676 H       
  33 H33           -0.4625     5.6471     1.2971 H       
  34 H34            4.2665     6.5252     0.3365 H       
  35 H35            6.1226     8.1325     0.4147 H       
  36 H36            5.6852    10.5428     0.1962 H       
  37 H37            3.3884    11.3665    -0.0927 H       
  38 H38           -1.1763    -0.5427     5.4313 H       
  39 H39            0.5818    -0.7910     5.5556 H       
  40 H40           -0.2427     0.3135     6.6818 H       
  41 H41            1.4458    11.7659     0.5805 H       
  42 H42            1.6251    11.6458    -1.1864 H       
  43 H43           -0.5383    12.6681    -0.6690 H       
  44 H44           -0.8089    11.0435    -1.3439 H       
  45 H45           -0.9491    13.0932     1.6452 H       
  46 H46           -1.2900    11.7413     2.7518 H       
  47 H47            0.3322    11.9231     2.0421 H       
  48 H48           -2.8766    10.6057    -0.2931 H       
  49 H49           -3.1086    10.9946     1.4283 H       
  50 H50           -2.8744    12.3027     0.2441 H       
@<TRIPOS>BOND
   1    1    2 2
   2    1    6 1
   3    2    3 1
   4    2   28 1
   5    3    4 2
   6    3   22 1
   7    4    5 1
   8    4   29 1
   9    5    7 1
  10    5    6 1
  11    6    9 2
  12    7    8 2
  13    8   10 1
  14    8    9 1
  15    9   12 1
  16   10   11 1
  17   10   30 1
  18   10   31 1
  19   11   12 1
  20   11   13 am
  21   12   32 1
  22   12   33 1
  23   13   14 1
  24   13   20 2
  25   14   16 ar
  26   14   15 ar
  27   15   19 ar
  28   15   21 1
  29   16   17 ar
  30   16   34 1
  31   17   18 ar
  32   17   35 1
  33   18   19 ar
  34   18   36 1
  35   19   37 1
  36   21   23 1
  37   22   38 1
  38   22   39 1
  39   22   40 1
  40   23   24 1
  41   23   41 1
  42   23   42 1
  43   24   25 1
  44   24   43 1
  45   24   44 1
  46   25   26 1
  47   25   27 1
  48   26   45 1
  49   26   46 1
  50   26   47 1
  51   27   48 1
  52   27   49 1
  53   27   50 1

#	End of record

