#	Name: ASD01901095
#	Creating user name:	WinNT
#	Creation time:	15. 06. 2019 19:53

#	Modifying user name:	WinNT
#	Modification time:	15. 06. 2019 19:53

#	Program:	/corina/corina34_cracker 3.40 0067  02.08.2006

@<TRIPOS>MOLECULE
ASD01901095
  35   36    0    0    0
SMALL
NO_CHARGES


@<TRIPOS>ATOM
   1 C1            -0.0156     1.5006    -0.0266 C.2     
   2 C2             0.0041    -0.0062    -0.0120 C.3     
   3 O3            -1.3368    -0.5001    -0.0107 O.3     
   4 C4            -1.4971    -1.8496     0.0020 C.ar    
   5 C5            -2.7708    -2.3965     0.0040 C.ar    
   6 C6            -2.9310    -3.7751     0.0165 C.ar    
   7 C7            -1.8145    -4.6025     0.0269 C.ar    
   8 C8            -0.5472    -4.0533     0.0249 C.ar    
   9 C9            -0.3859    -2.6807     0.0072 C.ar    
  10 N10           -4.2127    -4.3302     0.0190 N.pl3   
  11 C11           -5.3867    -3.4620     0.1389 C.3     
  12 C12           -4.3831    -5.7805    -0.0982 C.3     
  13 C13            2.4754     1.5817    -0.0210 C.ar    
  14 C14            1.2484     2.2528    -0.0306 C.ar    
  15 C15            1.2440     3.6560    -0.0447 C.ar    
  16 C16            2.4591     4.3146    -0.0484 C.ar    
  17 C17            3.6315     3.5760    -0.0382 C.ar    
  18 N18            3.6060     2.2553    -0.0250 N.ar    
  19 Cl19           5.1594     4.4002    -0.0433 Cl      
  20 O20           -1.0736     2.0930    -0.0402 O.2     
  21 H21            0.5250    -0.3713    -0.8971 H       
  22 H22            0.5204    -0.3541     0.8828 H       
  23 H23           -3.6368    -1.7512    -0.0038 H       
  24 H24           -1.9378    -5.6753     0.0370 H       
  25 H25            0.3194    -4.6978     0.0330 H       
  26 H26            0.6064    -2.2544     0.0011 H       
  27 H27           -5.7177    -3.1593    -0.8545 H       
  28 H28           -6.1892    -4.0033     0.6400 H       
  29 H29           -5.1266    -2.5775     0.7204 H       
  30 H30           -3.4136    -6.2473    -0.2720 H       
  31 H31           -4.8146    -6.1713     0.8232 H       
  32 H32           -5.0478    -6.0019    -0.9332 H       
  33 H33            2.4952     0.5020    -0.0055 H       
  34 H34            0.3152     4.2070    -0.0529 H       
  35 H35            2.4945     5.3940    -0.0595 H       
@<TRIPOS>BOND
   1    1    2 1
   2    1   14 1
   3    1   20 2
   4    2    3 1
   5    2   21 1
   6    2   22 1
   7    3    4 1
   8    4    5 ar
   9    4    9 ar
  10    5    6 ar
  11    5   23 1
  12    6    7 ar
  13    6   10 1
  14    7    8 ar
  15    7   24 1
  16    8    9 ar
  17    8   25 1
  18    9   26 1
  19   10   11 1
  20   10   12 1
  21   11   27 1
  22   11   28 1
  23   11   29 1
  24   12   30 1
  25   12   31 1
  26   12   32 1
  27   13   14 ar
  28   13   18 ar
  29   13   33 1
  30   14   15 ar
  31   15   16 ar
  32   15   34 1
  33   16   17 ar
  34   16   35 1
  35   17   18 ar
  36   17   19 1

#	End of record

