#	Name: ASD03730957
#	Creating user name:	WinNT
#	Creation time:	15. 06. 2019 20:45

#	Modifying user name:	WinNT
#	Modification time:	15. 06. 2019 20:45

#	Program:	/corina/corina34_cracker 3.40 0067  02.08.2006

@<TRIPOS>MOLECULE
ASD03730957
  64   70    0    0    0
SMALL
NO_CHARGES


@<TRIPOS>ATOM
   1 C1            -0.0177     1.4745     0.0020 C.2     
   2 C2             0.0032    -0.0034    -0.0046 C.ar    
   3 C3             1.2201    -0.6873    -0.0284 C.ar    
   4 C4             1.2324    -2.0666    -0.0344 C.ar    
   5 C5             0.0422    -2.7724    -0.0175 C.ar    
   6 C6            -1.1671    -2.1008     0.0061 C.ar    
   7 C7            -1.1935    -0.7214     0.0187 C.ar    
   8 O8             1.0262     2.0971    -0.0133 O.2     
   9 N9            -1.1942     2.1318     0.0193 N.am    
  10 C10            2.5450    -2.8066    -0.0600 C.3     
  11 O11           -0.8457    -3.3172     6.2592 O.3     
  12 C12           -0.8758    -3.5706     7.6763 C.3     
  13 O13            0.0313    -4.6757     7.8457 O.3     
  14 C14            0.9212    -4.5799     6.8144 C.ar    
  15 C15            0.3809    -3.7452     5.8387 C.ar    
  16 C16            2.1695    -5.1458     6.6265 C.ar    
  17 C17            2.8926    -4.8890     5.4656 C.ar    
  18 C18            2.3389    -4.0602     4.4945 C.ar    
  19 C19            1.0972    -3.4895     4.6816 C.ar    
  20 O20            4.1302    -5.3260     5.0947 O.3     
  21 C21            3.3319    -4.0002     3.3648 C.3     
  22 C22            4.2848    -5.1635     3.6717 C.3     
  23 N23            2.9940    -3.0522     1.3126 N.am    
  24 C24            2.6758    -4.1529     2.0228 C.2     
  25 C25            4.0531    -2.6862     3.3078 C.ar    
  26 C26            4.8313    -1.9884     4.2043 C.ar    
  27 C27            5.3736    -0.7668     3.8470 C.ar    
  28 C28            5.1316    -0.2481     2.5879 C.ar    
  29 C29            4.3520    -0.9428     1.6868 C.ar    
  30 C30            3.8024    -2.1735     2.0377 C.ar    
  31 O31            1.9937    -5.0842     1.6507 O.2     
  32 C32           -1.2148     3.5202     0.1321 C.ar    
  33 C33           -2.4234     4.2013     0.0362 C.ar    
  34 C34           -2.4296     5.5801     0.1505 C.ar    
  35 C35           -1.2220     6.2331     0.3576 C.ar    
  36 C36           -0.0593     5.4932     0.4428 C.ar    
  37 N37           -0.0846     4.1785     0.3350 N.ar    
  38 C38            1.2548     6.1960     0.6670 C.3     
  39 C39           -3.7180     6.3557     0.0519 C.3     
  40 H40            2.1496    -0.1377    -0.0423 H       
  41 H41            0.0574    -3.8522    -0.0230 H       
  42 H42           -2.0924    -2.6576     0.0193 H       
  43 H43           -2.1382    -0.1984     0.0416 H       
  44 H44           -2.0266     1.6381    -0.0468 H       
  45 H45            2.4156    -3.7581    -0.5758 H       
  46 H46            3.2896    -2.2075    -0.5842 H       
  47 H47           -0.5249    -2.6989     8.2287 H       
  48 H48           -1.8808    -3.8478     7.9945 H       
  49 H49            2.5855    -5.7913     7.3859 H       
  50 H50            0.6824    -2.8418     3.9234 H       
  51 H51            5.3121    -4.8987     3.4216 H       
  52 H52            3.9769    -6.0658     3.1433 H       
  53 H53            5.0188    -2.3953     5.1870 H       
  54 H54            5.9848    -0.2196     4.5495 H       
  55 H55            5.5549     0.7056     2.3091 H       
  56 H56            4.1671    -0.5310     0.7057 H       
  57 H57           -3.3446     3.6614    -0.1256 H       
  58 H58           -1.1923     7.3087     0.4508 H       
  59 H59            1.4434     6.2810     1.7372 H       
  60 H60            2.0570     5.6238     0.2010 H       
  61 H61            1.2144     7.1916     0.2250 H       
  62 H62           -4.1574     6.4578     1.0442 H       
  63 H63           -3.5162     7.3446    -0.3597 H       
  64 H64           -4.4122     5.8255    -0.6000 H       
@<TRIPOS>BOND
   1    1    2 1
   2    1    8 2
   3    1    9 am
   4    2    3 ar
   5    2    7 ar
   6    3    4 ar
   7    3   40 1
   8    4    5 ar
   9    4   10 1
  10    5    6 ar
  11    5   41 1
  12    6    7 ar
  13    6   42 1
  14    7   43 1
  15    9   32 1
  16    9   44 1
  17   10   23 1
  18   10   45 1
  19   10   46 1
  20   11   12 1
  21   11   15 1
  22   12   13 1
  23   12   47 1
  24   12   48 1
  25   13   14 1
  26   14   15 ar
  27   14   16 ar
  28   15   19 ar
  29   16   17 ar
  30   16   49 1
  31   17   18 ar
  32   17   20 1
  33   18   19 ar
  34   18   21 1
  35   19   50 1
  36   20   22 1
  37   21   22 1
  38   21   24 1
  39   21   25 1
  40   22   51 1
  41   22   52 1
  42   23   24 am
  43   23   30 1
  44   24   31 2
  45   25   26 ar
  46   25   30 ar
  47   26   27 ar
  48   26   53 1
  49   27   28 ar
  50   27   54 1
  51   28   29 ar
  52   28   55 1
  53   29   30 ar
  54   29   56 1
  55   32   33 ar
  56   32   37 ar
  57   33   34 ar
  58   33   57 1
  59   34   35 ar
  60   34   39 1
  61   35   36 ar
  62   35   58 1
  63   36   37 ar
  64   36   38 1
  65   38   59 1
  66   38   60 1
  67   38   61 1
  68   39   62 1
  69   39   63 1
  70   39   64 1

#	End of record

