#	Name: ASD01913235
#	Creating user name:	WinNT
#	Creation time:	15. 06. 2019 20:01

#	Modifying user name:	WinNT
#	Modification time:	15. 06. 2019 20:01

#	Program:	/corina/corina34_cracker 3.40 0067  02.08.2006

@<TRIPOS>MOLECULE
ASD01913235
  44   47    0    0    0
SMALL
NO_CHARGES


@<TRIPOS>ATOM
   1 C1             0.7301     1.1798    -1.0050 C.3     
   2 N2             0.3534    -0.1342    -0.4728 N.am    
   3 C3             1.3090    -0.7960     0.4310 C.3     
   4 C4             2.5769    -1.0981    -0.3664 C.3     
   5 C5             3.0151     0.1084    -1.1540 C.ar    
   6 C6             4.3358     0.1498    -1.5887 C.ar    
   7 C7             4.7997     1.2227    -2.3228 C.ar    
   8 C8             3.9459     2.2656    -2.6302 C.ar    
   9 C9             2.6366     2.2284    -2.1970 C.ar    
  10 C10            2.1692     1.1518    -1.4552 C.ar    
  11 C11           -0.8200    -0.7121    -0.7976 C.2     
  12 C12           -1.8134     0.0324    -1.5988 C.ar    
  13 C13           -2.6091    -0.6406    -2.5241 C.ar    
  14 C14           -3.5441     0.0685    -3.2765 C.ar    
  15 C15           -3.6770     1.4520    -3.0971 C.ar    
  16 C16           -2.8826     2.1111    -2.1761 C.ar    
  17 C17           -1.9601     1.4114    -1.4256 C.ar    
  18 O18           -1.0612    -1.8459    -0.4313 O.2     
  19 C19           -4.3657    -0.6144    -4.2300 C.1     
  20 C20           -5.0394    -1.1743    -5.0117 C.1     
  21 C21           -5.8610    -1.8572    -5.9651 C.ar    
  22 C22           -6.7961    -1.1393    -6.7156 C.ar    
  23 C23           -7.5814    -1.8138    -7.6324 C.ar    
  24 C24           -7.4092    -3.1847    -7.7721 C.ar    
  25 C25           -6.4653    -3.8336    -6.9975 C.ar    
  26 N26           -5.7250    -3.1691    -6.1341 N.ar    
  27 F27           -4.5818     2.1429    -3.8247 F       
  28 Cl28           5.4097    -1.1588    -1.2043 Cl      
  29 H29            0.0897     1.4252    -1.8522 H       
  30 H30            0.6078     1.9345    -0.2280 H       
  31 H31            1.5464    -0.1353     1.2648 H       
  32 H32            0.8792    -1.7248     0.8062 H       
  33 H33            3.3725    -1.3859     0.3208 H       
  34 H34            2.3811    -1.9222    -1.0524 H       
  35 H35            5.8268     1.2475    -2.6557 H       
  36 H36            4.3025     3.1062    -3.2069 H       
  37 H37            1.9698     3.0434    -2.4368 H       
  38 H38           -2.5015    -1.7069    -2.6580 H       
  39 H39           -2.9877     3.1775    -2.0409 H       
  40 H40           -1.3463     1.9317    -0.7053 H       
  41 H41           -6.9041    -0.0731    -6.5813 H       
  42 H42           -8.3128    -1.2861    -8.2265 H       
  43 H43           -8.0078    -3.7394    -8.4795 H       
  44 H44           -6.3302    -4.8997    -7.1050 H       
@<TRIPOS>BOND
   1    1    2 1
   2    1   10 1
   3    1   29 1
   4    1   30 1
   5    2    3 1
   6    2   11 am
   7    3    4 1
   8    3   31 1
   9    3   32 1
  10    4    5 1
  11    4   33 1
  12    4   34 1
  13    5    6 ar
  14    5   10 ar
  15    6    7 ar
  16    6   28 1
  17    7    8 ar
  18    7   35 1
  19    8    9 ar
  20    8   36 1
  21    9   10 ar
  22    9   37 1
  23   11   12 1
  24   11   18 2
  25   12   13 ar
  26   12   17 ar
  27   13   14 ar
  28   13   38 1
  29   14   15 ar
  30   14   19 1
  31   15   16 ar
  32   15   27 1
  33   16   17 ar
  34   16   39 1
  35   17   40 1
  36   19   20 3
  37   20   21 1
  38   21   22 ar
  39   21   26 ar
  40   22   23 ar
  41   22   41 1
  42   23   24 ar
  43   23   42 1
  44   24   25 ar
  45   24   43 1
  46   25   26 ar
  47   25   44 1

#	End of record

