#	Name: ASD03092621
#	Creating user name:	WinNT
#	Creation time:	15. 06. 2019 20:32

#	Modifying user name:	WinNT
#	Modification time:	15. 06. 2019 20:32

#	Program:	/corina/corina34_cracker 3.40 0067  02.08.2006

@<TRIPOS>MOLECULE
ASD03092621
  35   37    0    0    0
SMALL
NO_CHARGES


@<TRIPOS>ATOM
   1 O1            -0.0162     1.3413     0.0094 O.3     
   2 C2             0.0021    -0.0041     0.0020 C.2     
   3 N3             1.2520    -0.4055    -0.0121 N.2     
   4 C4             2.0461     0.6671    -0.0139 C.2     
   5 C5             1.2579     1.7660    -0.0005 C.2     
   6 C6            -1.1834    -0.8809     0.0091 C.2     
   7 O7            -2.2984    -0.3958     0.0227 O.2     
   8 N8            -1.0312    -2.2200     0.0004 N.am    
   9 C9            -2.2091    -3.0912     0.0074 C.3     
  10 N10           -0.5628    -8.4730     0.2354 N.pl3   
  11 C11           -0.4998    -8.6415     1.5919 C.2     
  12 C12           -0.8425    -7.5008     2.2110 C.2     
  13 C13           -1.1500    -6.5218     1.1656 C.ar    
  14 C14           -1.5581    -5.1865     1.1761 C.ar    
  15 C15           -1.7681    -4.5322    -0.0047 C.ar    
  16 C16           -1.5791    -5.1843    -1.2157 C.ar    
  17 C17           -1.1772    -6.5014    -1.2491 C.ar    
  18 C18           -0.9575    -7.1872    -0.0587 C.ar    
  19 C19           -0.1048    -9.9186     2.2877 C.3     
  20 C20            1.7226     3.1996     0.0024 C.3     
  21 H21            3.1260     0.6589    -0.0237 H       
  22 H22           -0.1418    -2.6070    -0.0105 H       
  23 H23           -2.7979    -2.8989     0.9043 H       
  24 H24           -2.8155    -2.8893    -0.8756 H       
  25 H25           -0.3561    -9.1565    -0.4211 H       
  26 H26           -0.8837    -7.3360     3.2776 H       
  27 H27           -1.7080    -4.6730     2.1143 H       
  28 H28           -1.7491    -4.6536    -2.1408 H       
  29 H29           -1.0331    -7.0001    -2.1962 H       
  30 H30            0.9734    -9.9268     2.4474 H       
  31 H31           -0.6150    -9.9814     3.2488 H       
  32 H32           -0.3872   -10.7712     1.6700 H       
  33 H33            0.8571     3.8620     0.0143 H       
  34 H34            2.3322     3.3822     0.8873 H       
  35 H35            2.3147     3.3914    -0.8925 H       
@<TRIPOS>BOND
   1    1    2 1
   2    1    5 1
   3    2    3 2
   4    2    6 1
   5    3    4 1
   6    4    5 2
   7    4   21 1
   8    5   20 1
   9    6    7 2
  10    6    8 am
  11    8    9 1
  12    8   22 1
  13    9   15 1
  14    9   23 1
  15    9   24 1
  16   10   11 1
  17   10   18 1
  18   10   25 1
  19   11   12 2
  20   11   19 1
  21   12   13 1
  22   12   26 1
  23   13   14 ar
  24   13   18 ar
  25   14   15 ar
  26   14   27 1
  27   15   16 ar
  28   16   17 ar
  29   16   28 1
  30   17   18 ar
  31   17   29 1
  32   19   30 1
  33   19   31 1
  34   19   32 1
  35   20   33 1
  36   20   34 1
  37   20   35 1

#	End of record

