#	Name: ASD01708007
#	Creating user name:	WinNT
#	Creation time:	15. 06. 2019 19:22

#	Modifying user name:	WinNT
#	Modification time:	15. 06. 2019 19:22

#	Program:	/corina/corina34_cracker 3.40 0067  02.08.2006

@<TRIPOS>MOLECULE
ASD01708007
  66   70    0    0    0
SMALL
NO_CHARGES


@<TRIPOS>ATOM
   1 C1            -0.0158     1.3116     0.0093 C.ar    
   2 N2             0.0021    -0.0041     0.0020 N.ar    
   3 C3             1.1564     2.0544     0.0021 C.ar    
   4 C4             2.3660     1.4115    -0.0130 C.ar    
   5 C5             2.3714     0.0088    -0.0206 C.ar    
   6 C6             1.1424    -0.6834    -0.0126 C.ar    
   7 C7             3.3977    -0.9622    -0.0357 C.2     
   8 C8             2.8034    -2.1893    -0.0367 C.2     
   9 N9             1.4293    -2.0248    -0.0226 N.pl3   
  10 C10            3.4838    -3.4338    -0.0499 C.2     
  11 C11            2.7001    -4.7210    -0.0494 C.3     
  12 O12            4.6972    -3.4621    -0.0617 O.2     
  13 C13            2.4188    -5.1526    -1.4870 C.3     
  14 C14            1.8351    -6.5415    -1.5194 C.ar    
  15 C15            1.9288    -7.4090    -0.4526 C.ar    
  16 C16            2.6136    -7.0373     0.8369 C.3     
  17 C17            3.5175    -5.8231     0.6349 C.3     
  18 C18            1.1832    -6.9388    -2.6816 C.ar    
  19 C19            0.6286    -8.1957    -2.7848 C.ar    
  20 C20            0.7230    -9.0822    -1.7083 C.ar    
  21 C21            1.3765    -8.6789    -0.5445 C.ar    
  22 Cl22           1.4998    -9.7722     0.7983 Cl      
  23 Cl23          -0.1829    -8.6753    -4.2425 Cl      
  24 C24            0.1363   -10.4342    -1.8029 C.2     
  25 N25           -1.1395   -10.6434    -1.4219 N.am    
  26 O26            0.8040   -11.3585    -2.2245 O.2     
  27 C27           -1.7215   -11.9845    -1.5157 C.3     
  28 C28           -2.2534   -12.2049    -2.9084 C.2     
  29 O29           -2.8351   -13.3717    -3.2278 O.3     
  30 O30           -2.1563   -11.3314    -3.7375 O.2     
  31 C31           -2.8640   -12.1164    -0.5066 C.3     
  32 C32           -2.3125   -12.0182     0.8924 C.ar    
  33 C33           -2.2157   -10.7866     1.5122 C.ar    
  34 C34           -1.7096   -10.6965     2.7956 C.ar    
  35 C35           -1.3009   -11.8381     3.4590 C.ar    
  36 C36           -1.3985   -13.0701     2.8394 C.ar    
  37 C37           -1.9085   -13.1607     1.5579 C.ar    
  38 S38           -1.5852    -9.1263     3.5853 S.o2    
  39 C39           -3.1719    -8.9227     4.4405 C.3     
  40 O40           -0.5303    -9.2886     4.5235 O.2     
  41 O41           -1.4751    -8.2019     2.5118 O.2     
  42 H42           -0.9655     1.8257     0.0165 H       
  43 H43            1.1152     3.1336     0.0079 H       
  44 H44            3.2906     1.9696    -0.0192 H       
  45 H45            4.4600    -0.7676    -0.0452 H       
  46 H46            0.7756    -2.7413    -0.0202 H       
  47 H47            1.7591    -4.5776     0.4817 H       
  48 H48            1.7135    -4.4558    -1.9399 H       
  49 H49            3.3494    -5.1406    -2.0544 H       
  50 H50            1.8604    -6.8034     1.5894 H       
  51 H51            3.2144    -7.8794     1.1805 H       
  52 H52            4.3644    -6.0964     0.0056 H       
  53 H53            3.8766    -5.4679     1.6008 H       
  54 H54            1.1104    -6.2537    -3.5133 H       
  55 H55           -1.6723    -9.9059    -1.0855 H       
  56 H56           -0.9560   -12.7289    -1.2971 H       
  57 H57           -3.1610   -13.4664    -4.1333 H       
  58 H58           -3.5866   -11.3166    -0.6693 H       
  59 H59           -3.3544   -13.0811    -0.6370 H       
  60 H60           -2.5351    -9.8946     0.9938 H       
  61 H61           -0.9049   -11.7676     4.4613 H       
  62 H62           -1.0789   -13.9621     3.3576 H       
  63 H63           -1.9848   -14.1231     1.0739 H       
  64 H64           -3.3032    -9.7309     5.1601 H       
  65 H65           -3.1832    -7.9660     4.9626 H       
  66 H66           -3.9829    -8.9490     3.7127 H       
@<TRIPOS>BOND
   1    1    2 ar
   2    1    3 ar
   3    1   42 1
   4    2    6 ar
   5    3    4 ar
   6    3   43 1
   7    4    5 ar
   8    4   44 1
   9    5    6 ar
  10    5    7 1
  11    6    9 1
  12    7    8 2
  13    7   45 1
  14    8    9 1
  15    8   10 1
  16    9   46 1
  17   10   11 1
  18   10   12 2
  19   11   13 1
  20   11   17 1
  21   11   47 1
  22   13   14 1
  23   13   48 1
  24   13   49 1
  25   14   15 ar
  26   14   18 ar
  27   15   16 1
  28   15   21 ar
  29   16   17 1
  30   16   50 1
  31   16   51 1
  32   17   52 1
  33   17   53 1
  34   18   19 ar
  35   18   54 1
  36   19   20 ar
  37   19   23 1
  38   20   21 ar
  39   20   24 1
  40   21   22 1
  41   24   25 am
  42   24   26 2
  43   25   27 1
  44   25   55 1
  45   27   28 1
  46   27   31 1
  47   27   56 1
  48   28   29 1
  49   28   30 2
  50   29   57 1
  51   31   32 1
  52   31   58 1
  53   31   59 1
  54   32   33 ar
  55   32   37 ar
  56   33   34 ar
  57   33   60 1
  58   34   35 ar
  59   34   38 1
  60   35   36 ar
  61   35   61 1
  62   36   37 ar
  63   36   62 1
  64   37   63 1
  65   38   39 1
  66   38   40 2
  67   38   41 2
  68   39   64 1
  69   39   65 1
  70   39   66 1

#	End of record

