#	Name: ASD01901172
#	Creating user name:	WinNT
#	Creation time:	15. 06. 2019 19:53

#	Modifying user name:	WinNT
#	Modification time:	15. 06. 2019 19:53

#	Program:	/corina/corina34_cracker 3.40 0067  02.08.2006

@<TRIPOS>MOLECULE
ASD01901172
  57   61    0    0    0
SMALL
NO_CHARGES


@<TRIPOS>ATOM
   1 C1             0.1665     1.7824    -4.6747 C.ar    
   2 C2             0.2684     0.4985    -5.1680 C.ar    
   3 C3             1.3994    -0.2568    -4.9126 C.ar    
   4 C4             2.4359     0.2690    -4.1614 C.ar    
   5 C5             2.3480     1.5512    -3.6612 C.ar    
   6 C6             1.2091     2.3201    -3.9153 C.ar    
   7 C7             1.1109     3.6526    -3.4001 C.1     
   8 C8             1.0304     4.7451    -2.9777 C.1     
   9 C9             0.9322     6.0775    -2.4625 C.ar    
  10 C10            1.9762     6.6138    -1.7031 C.ar    
  11 C11            1.8781     7.8982    -1.2082 C.ar    
  12 C12            0.7419     8.6592    -1.4642 C.ar    
  13 C13           -0.2990     8.1288    -2.2196 C.ar    
  14 C14           -0.2053     6.8472    -2.7226 C.ar    
  15 N15            0.6456     9.9640    -0.9592 N.am    
  16 C16            1.1043    10.9643    -1.7179 C.2     
  17 N17            1.0646    12.2550    -1.3684 N.am    
  18 C18            0.6755    12.6382    -0.0008 C.3     
  19 C19            0.0671    11.5194     0.8665 C.3     
  20 C20            0.0925    10.1300     0.2555 C.2     
  21 O21            1.5896    10.6826    -2.7959 O.2     
  22 F22            2.8863     8.4170    -0.4738 F       
  23 O23           -0.3747     9.1847     0.8540 O.2     
  24 F24           -1.4004     8.8714    -2.4658 F       
  25 C25            1.9069    13.1899     0.7205 C.3     
  26 C26            1.3816    13.3254    -2.3192 C.3     
  27 C27            0.1198    14.1713    -2.5148 C.3     
  28 N28           -0.5247    14.4421    -1.2372 N.am    
  29 C29           -0.3307    13.7429    -0.1147 C.2     
  30 C30           -1.4137    15.5210    -1.1781 C.ar    
  31 O31           -1.0034    14.0110     0.8582 O.2     
  32 C32           -2.7571    15.3328    -1.4753 C.ar    
  33 C33           -3.6321    16.3998    -1.4161 C.ar    
  34 C34           -3.1715    17.6546    -1.0618 C.ar    
  35 C35           -1.8344    17.8454    -0.7653 C.ar    
  36 C36           -0.9556    16.7812    -0.8166 C.ar    
  37 H37           -0.7149     2.3723    -4.8785 H       
  38 H38           -0.5367     0.0814    -5.7547 H       
  39 H39            1.4735    -1.2618    -5.3012 H       
  40 H40            3.3156    -0.3263    -3.9661 H       
  41 H41            3.1574     1.9601    -3.0745 H       
  42 H42            2.8583     6.0234    -1.5037 H       
  43 H43           -1.0117     6.4378    -3.3130 H       
  44 H44            0.6091    11.4869     1.8116 H       
  45 H45           -0.9694    11.7791     1.0814 H       
  46 H46            2.6337    12.3901     0.8623 H       
  47 H47            2.3529    13.9843     0.1221 H       
  48 H48            1.6112    13.5884     1.6910 H       
  49 H49            2.1838    13.9466    -1.9210 H       
  50 H50            1.6872    12.8934    -3.2722 H       
  51 H51            0.3907    15.1155    -2.9871 H       
  52 H52           -0.5753    13.6346    -3.1605 H       
  53 H53           -3.1173    14.3532    -1.7528 H       
  54 H54           -4.6770    16.2541    -1.6472 H       
  55 H55           -3.8576    18.4876    -1.0169 H       
  56 H56           -1.4778    18.8266    -0.4888 H       
  57 H57            0.0877    16.9298    -0.5802 H       
@<TRIPOS>BOND
   1    1    2 ar
   2    1    6 ar
   3    1   37 1
   4    2    3 ar
   5    2   38 1
   6    3    4 ar
   7    3   39 1
   8    4    5 ar
   9    4   40 1
  10    5    6 ar
  11    5   41 1
  12    6    7 1
  13    7    8 3
  14    8    9 1
  15    9   10 ar
  16    9   14 ar
  17   10   11 ar
  18   10   42 1
  19   11   12 ar
  20   11   22 1
  21   12   13 ar
  22   12   15 1
  23   13   14 ar
  24   13   24 1
  25   14   43 1
  26   15   16 am
  27   15   20 am
  28   16   17 am
  29   16   21 2
  30   17   26 1
  31   17   18 1
  32   18   19 1
  33   18   29 1
  34   18   25 1
  35   19   20 1
  36   19   44 1
  37   19   45 1
  38   20   23 2
  39   25   46 1
  40   25   47 1
  41   25   48 1
  42   26   27 1
  43   26   49 1
  44   26   50 1
  45   27   28 1
  46   27   51 1
  47   27   52 1
  48   28   29 am
  49   28   30 1
  50   29   31 2
  51   30   32 ar
  52   30   36 ar
  53   32   33 ar
  54   32   53 1
  55   33   34 ar
  56   33   54 1
  57   34   35 ar
  58   34   55 1
  59   35   36 ar
  60   35   56 1
  61   36   57 1

#	End of record

