#	Name: ASD07030031
#	Creating user name:	WinNT
#	Creation time:	15. 06. 2019 21:08

#	Modifying user name:	WinNT
#	Modification time:	15. 06. 2019 21:08

#	Program:	/corina/corina34_cracker 3.40 0067  02.08.2006

@<TRIPOS>MOLECULE
ASD07030031
  56   59    0    0    0
SMALL
NO_CHARGES


@<TRIPOS>ATOM
   1 C1             0.0021    -0.0041     0.0020 C.1     
   2 C2            -0.0173     1.4278     0.0099 C.ar    
   3 C3             1.1804     2.1455     0.0023 C.ar    
   4 C4             1.1544     3.5247     0.0100 C.ar    
   5 C5            -0.0549     4.1969     0.0257 C.ar    
   6 C6            -1.2455     3.4920     0.0337 C.ar    
   7 C7            -1.2341     2.1126     0.0194 C.ar    
   8 N8             0.0175    -1.1399    -0.0042 N.1     
   9 C9            -0.0753     5.7037     0.0345 C.3     
  10 O10           -0.0949     6.1877    -1.3099 O.3     
  11 C11           -0.1149     7.5359    -1.4800 C.ar    
  12 C12           -0.1347     8.0747    -2.7583 C.ar    
  13 C13           -0.1549     9.4454    -2.9286 C.ar    
  14 C14           -0.1556    10.2802    -1.8264 C.ar    
  15 C15           -0.1355     9.7457    -0.5514 C.ar    
  16 C16           -0.1214     8.3756    -0.3757 C.ar    
  17 C17           -0.1777    11.7752    -2.0151 C.3     
  18 C18           -1.3579    12.5451    -1.4189 C.3     
  19 C19            0.0260    12.6470    -0.7743 C.3     
  20 N20           -1.8486    13.7147    -2.1601 N.3     
  21 C21           -3.2578    13.9844    -1.8447 C.3     
  22 C22           -3.7320    15.2066    -2.6336 C.3     
  23 N23           -5.1412    15.4764    -2.3182 N.3     
  24 C24           -5.5665    16.7761    -2.8693 C.3     
  25 C25           -6.7799    16.5096    -3.7847 C.3     
  26 C26           -7.3259    15.1571    -3.2563 C.3     
  27 C27           -6.0187    14.4217    -2.8690 C.3     
  28 N28           -7.7858    17.5697    -3.6356 N.3     
  29 H29            2.1250     1.6220    -0.0092 H       
  30 H30            2.0800     4.0810     0.0042 H       
  31 H31           -2.1859     4.0230     0.0463 H       
  32 H32           -2.1642     1.5637     0.0208 H       
  33 H33           -0.9651     6.0519     0.5591 H       
  34 H34            0.8146     6.0762     0.5418 H       
  35 H35           -0.1338     7.4230    -3.6196 H       
  36 H36           -0.1699     9.8654    -3.9235 H       
  37 H37           -0.1353    10.3999     0.3079 H       
  38 H38           -0.1106     7.9585     0.6204 H       
  39 H39            0.2346    12.1365    -2.9572 H       
  40 H40           -2.1183    11.9703    -0.8903 H       
  41 H41            0.1760    12.1392     0.1784 H       
  42 H42            0.5722    13.5818    -0.9002 H       
  43 H43           -1.2757    14.5249    -1.9776 H       
  44 H44           -3.8629    13.1195    -2.1162 H       
  45 H45           -3.3604    14.1789    -0.7771 H       
  46 H46           -3.1269    16.0715    -2.3621 H       
  47 H47           -3.6294    15.0121    -3.7012 H       
  48 H48           -5.8534    17.4464    -2.0590 H       
  49 H49           -4.7549    17.2169    -3.4482 H       
  50 H50           -6.4656    16.4186    -4.8244 H       
  51 H51           -7.9626    15.3069    -2.3844 H       
  52 H52           -7.8595    14.6186    -4.0396 H       
  53 H53           -5.5623    13.9699    -3.7498 H       
  54 H54           -6.2200    13.6625    -2.1133 H       
  55 H55           -8.5814    17.3998    -4.2325 H       
  56 H56           -8.0703    17.6654    -2.6723 H       
@<TRIPOS>BOND
   1    1    2 1
   2    1    8 3
   3    2    3 ar
   4    2    7 ar
   5    3    4 ar
   6    3   29 1
   7    4    5 ar
   8    4   30 1
   9    5    6 ar
  10    5    9 1
  11    6    7 ar
  12    6   31 1
  13    7   32 1
  14    9   10 1
  15    9   33 1
  16    9   34 1
  17   10   11 1
  18   11   12 ar
  19   11   16 ar
  20   12   13 ar
  21   12   35 1
  22   13   14 ar
  23   13   36 1
  24   14   15 ar
  25   14   17 1
  26   15   16 ar
  27   15   37 1
  28   16   38 1
  29   17   18 1
  30   17   19 1
  31   17   39 1
  32   18   19 1
  33   18   20 1
  34   18   40 1
  35   19   41 1
  36   19   42 1
  37   20   21 1
  38   20   43 1
  39   21   22 1
  40   21   44 1
  41   21   45 1
  42   22   23 1
  43   22   46 1
  44   22   47 1
  45   23   24 1
  46   23   27 1
  47   24   25 1
  48   24   48 1
  49   24   49 1
  50   25   26 1
  51   25   28 1
  52   25   50 1
  53   26   27 1
  54   26   51 1
  55   26   52 1
  56   27   53 1
  57   27   54 1
  58   28   55 1
  59   28   56 1

#	End of record

