#	Name: ASD01913079
#	Creating user name:	WinNT
#	Creation time:	15. 06. 2019 20:00

#	Modifying user name:	WinNT
#	Modification time:	15. 06. 2019 20:00

#	Program:	/corina/corina34_cracker 3.40 0067  02.08.2006

@<TRIPOS>MOLECULE
ASD01913079
  50   52    0    0    0
SMALL
NO_CHARGES


@<TRIPOS>ATOM
   1 C1            -0.0169     1.3949     0.0097 C.ar    
   2 C2             0.0021    -0.0041     0.0020 C.ar    
   3 C3             1.2233    -0.6890    -0.0061 C.ar    
   4 C4             2.3942     0.0109    -0.0067 C.ar    
   5 C5             2.3733     1.4099    -0.0134 C.ar    
   6 C6             1.1573     2.0946     0.0023 C.ar    
   7 C7             3.7173    -0.7090     0.0201 C.3     
   8 C8             4.7596     0.0814    -0.7669 C.3     
   9 N9             4.7888     1.4783    -0.3396 N.am    
  10 C10            3.6533     2.1445    -0.0582 C.2     
  11 O11            3.6815     3.3409     0.1565 O.2     
  12 C12           -1.2287    -0.7361     0.0030 C.1     
  13 C13           -2.2376    -1.3363     0.0037 C.1     
  14 C14           -3.4684    -2.0684     0.0047 C.ar    
  15 C15           -3.4542    -3.4660    -0.0030 C.ar    
  16 C16           -4.6435    -4.1642    -0.0021 C.ar    
  17 C17           -5.8489    -3.4844     0.0059 C.ar    
  18 C18           -5.8709    -2.1007     0.0135 C.ar    
  19 C19           -4.6897    -1.3889     0.0190 C.ar    
  20 C20            6.0764     2.1660    -0.2151 C.3     
  21 C21            6.1028     3.3542    -1.1417 C.2     
  22 O22            7.1910     4.1381    -1.1970 O.3     
  23 C23            7.1461     5.2647    -2.1118 C.3     
  24 C24            8.4656     6.0356    -2.0367 C.3     
  25 O25            5.1445     3.6012    -1.8349 O.2     
  26 C26            6.2642     2.6399     1.2274 C.3     
  27 C27            6.3622     1.4265     2.1542 C.3     
  28 H28           -0.9595     1.9221     0.0170 H       
  29 H29            1.2381    -1.7689    -0.0116 H       
  30 H30            1.1441     3.1745     0.0081 H       
  31 H31            4.0492    -0.8170     1.0526 H       
  32 H32            3.6005    -1.6969    -0.4255 H       
  33 H33            5.7420    -0.3628    -0.6064 H       
  34 H34            4.5164     0.0367    -1.8285 H       
  35 H35           -2.5142    -3.9978    -0.0100 H       
  36 H36           -4.6341    -5.2441    -0.0080 H       
  37 H37           -6.7771    -4.0365     0.0059 H       
  38 H38           -6.8154    -1.5770     0.0194 H       
  39 H39           -4.7083    -0.3091     0.0249 H       
  40 H40            6.8815     1.4806    -0.4801 H       
  41 H41            6.9949     4.9015    -3.1284 H       
  42 H42            6.3236     5.9245    -1.8356 H       
  43 H43            8.6168     6.3989    -1.0202 H       
  44 H44            9.2881     5.3759    -2.3129 H       
  45 H45            8.4319     6.8814    -2.7235 H       
  46 H46            7.1791     3.2278     1.3006 H       
  47 H47            5.4131     3.2541     1.5218 H       
  48 H48            7.2132     0.8123     1.8599 H       
  49 H49            6.4959     1.7641     3.1819 H       
  50 H50            5.4472     0.8386     2.0811 H       
@<TRIPOS>BOND
   1    1    2 ar
   2    1    6 ar
   3    1   28 1
   4    2    3 ar
   5    2   12 1
   6    3    4 ar
   7    3   29 1
   8    4    5 ar
   9    4    7 1
  10    5    6 ar
  11    5   10 1
  12    6   30 1
  13    7    8 1
  14    7   31 1
  15    7   32 1
  16    8    9 1
  17    8   33 1
  18    8   34 1
  19    9   10 am
  20    9   20 1
  21   10   11 2
  22   12   13 3
  23   13   14 1
  24   14   15 ar
  25   14   19 ar
  26   15   16 ar
  27   15   35 1
  28   16   17 ar
  29   16   36 1
  30   17   18 ar
  31   17   37 1
  32   18   19 ar
  33   18   38 1
  34   19   39 1
  35   20   21 1
  36   20   26 1
  37   20   40 1
  38   21   22 1
  39   21   25 2
  40   22   23 1
  41   23   24 1
  42   23   41 1
  43   23   42 1
  44   24   43 1
  45   24   44 1
  46   24   45 1
  47   26   27 1
  48   26   46 1
  49   26   47 1
  50   27   48 1
  51   27   49 1
  52   27   50 1

#	End of record

