#	Name: ASD05720239
#	Creating user name:	WinNT
#	Creation time:	15. 06. 2019 21:02

#	Modifying user name:	WinNT
#	Modification time:	15. 06. 2019 21:02

#	Program:	/corina/corina34_cracker 3.40 0067  02.08.2006

@<TRIPOS>MOLECULE
ASD05720239
  40   41    0    0    0
SMALL
NO_CHARGES


@<TRIPOS>ATOM
   1 N1            -0.0184     1.3816    -0.1517 N.pl3   
   2 N2             0.0441    -0.0194    -0.2273 N.2     
   3 C3             1.2851    -0.3597     0.0066 C.2     
   4 N4             2.0059     0.7366     0.2242 N.2     
   5 C5             1.2355     1.8016     0.1329 C.2     
   6 C6            -1.2032     2.2206    -0.3481 C.3     
   7 O7            -1.8387     2.4495     0.9111 O.3     
   8 C8            -3.0118     3.2617     0.8310 C.3     
   9 C9            -3.6055     3.4395     2.2298 C.3     
  10 Si10          -5.1348     4.4983     2.1254 Si      
  11 C11           -6.3869     3.6734     1.0196 C.3     
  12 C12           -5.8578     4.7148     3.8287 C.3     
  13 C13           -4.6891     6.1654     1.4234 C.3     
  14 C14            1.6654     3.2065     0.3096 C.ar    
  15 C15            0.7220     4.1990     0.5768 C.ar    
  16 C16            1.1290     5.5078     0.7406 C.ar    
  17 C17            2.4716     5.8359     0.6401 C.ar    
  18 C18            3.4110     4.8548     0.3747 C.ar    
  19 C19            3.0160     3.5424     0.2153 C.ar    
  20 Cl20          -0.0429     6.7448     1.0726 Cl      
  21 Br21           3.0222     7.6309     0.8656 Br      
  22 H22            1.6644    -1.3708     0.0208 H       
  23 H23           -0.9049     3.1744    -0.7833 H       
  24 H24           -1.8982     1.7163    -1.0195 H       
  25 H25           -2.7510     4.2371     0.4203 H       
  26 H26           -3.7443     2.7790     0.1840 H       
  27 H27           -3.8663     2.4641     2.6406 H       
  28 H28           -2.8730     3.9221     2.8768 H       
  29 H29           -6.6476     2.6980     1.4303 H       
  30 H30           -7.2816     4.2929     0.9584 H       
  31 H31           -5.9639     3.5467     0.0230 H       
  32 H32           -5.1252     5.1974     4.4756 H       
  33 H33           -6.7525     5.3343     3.7675 H       
  34 H34           -6.1185     3.7394     4.2394 H       
  35 H35           -4.2661     6.0387     0.4268 H       
  36 H36           -5.5839     6.7849     1.3622 H       
  37 H37           -3.9566     6.6480     2.0703 H       
  38 H38           -0.3246     3.9439     0.6549 H       
  39 H39            4.4559     5.1163     0.2967 H       
  40 H40            3.7508     2.7771     0.0134 H       
@<TRIPOS>BOND
   1    1    2 1
   2    1    5 1
   3    1    6 1
   4    2    3 2
   5    3    4 1
   6    3   22 1
   7    4    5 2
   8    5   14 1
   9    6    7 1
  10    6   23 1
  11    6   24 1
  12    7    8 1
  13    8    9 1
  14    8   25 1
  15    8   26 1
  16    9   10 1
  17    9   27 1
  18    9   28 1
  19   10   11 1
  20   10   12 1
  21   10   13 1
  22   11   29 1
  23   11   30 1
  24   11   31 1
  25   12   32 1
  26   12   33 1
  27   12   34 1
  28   13   35 1
  29   13   36 1
  30   13   37 1
  31   14   15 ar
  32   14   19 ar
  33   15   16 ar
  34   15   38 1
  35   16   17 ar
  36   16   20 1
  37   17   18 ar
  38   17   21 1
  39   18   19 ar
  40   18   39 1
  41   19   40 1

#	End of record

