#	Name: ASD01840422
#	Creating user name:	WinNT
#	Creation time:	15. 06. 2019 19:37

#	Modifying user name:	WinNT
#	Modification time:	15. 06. 2019 19:37

#	Program:	/corina/corina34_cracker 3.40 0067  02.08.2006

@<TRIPOS>MOLECULE
ASD01840422
  54   56    0    0    0
SMALL
NO_CHARGES


@<TRIPOS>ATOM
   1 C1             0.2610     1.7549    -0.9980 C.ar    
   2 C2             0.3840     0.5320    -1.6193 C.ar    
   3 N3             1.4992    -0.1678    -1.4965 N.ar    
   4 N4             2.5001     0.2427    -0.8112 N.ar    
   5 C5             1.3549     2.2266    -0.2363 C.ar    
   6 C6             1.5104     3.4570     0.5172 C.2     
   7 C7             2.4929     1.4123    -0.1669 C.ar    
   8 S8             3.7251     2.1827     0.8223 S.3     
   9 C9             2.7119     3.5785     1.1344 C.2     
  10 C10           -1.0000     2.5692    -1.1311 C.3     
  11 C11           -0.7564    -0.0106    -2.4416 C.3     
  12 N12            0.5177     4.4241     0.5986 N.pl3   
  13 C13            3.1098     4.7235     1.9521 C.2     
  14 O14            2.3396     5.6522     2.1150 O.2     
  15 N15            4.3293     4.7508     2.5253 N.am    
  16 C16            4.7281     5.8981     3.3445 C.3     
  17 C17            4.2628     5.7206     4.8140 C.3     
  18 C18            5.2845     6.5650     5.6044 C.3     
  19 N19            6.4851     6.6951     4.7658 N.am    
  20 C20            6.2673     5.9538     3.5102 C.3     
  21 C21            7.5998     7.3795     5.0906 C.2     
  22 O22            8.5336     7.4196     4.3178 O.2     
  23 C23            7.6858     8.0949     6.4142 C.3     
  24 C24            9.0450     8.7875     6.5321 C.3     
  25 C25            9.1324     9.5138     7.8759 C.3     
  26 C26           10.4916    10.2064     7.9938 C.3     
  27 C27           10.5790    10.9327     9.3376 C.3     
  28 H28           -1.6441     2.3847    -0.2714 H       
  29 H29           -0.7458     3.6283    -1.1740 H       
  30 H30           -1.5222     2.2837    -2.0443 H       
  31 H31           -0.6496     0.3211    -3.4744 H       
  32 H32           -0.7434    -1.0999    -2.4066 H       
  33 H33           -1.7010     0.3547    -2.0385 H       
  34 H34           -0.4030     4.1919     0.4002 H       
  35 H35            0.7448     5.3320     0.8537 H       
  36 H36            4.9429     4.0109     2.3955 H       
  37 H37            4.3459     6.8279     2.9233 H       
  38 H38            3.2539     6.1104     4.9488 H       
  39 H39            4.3157     4.6734     5.1115 H       
  40 H40            4.8689     7.5510     5.8122 H       
  41 H41            5.5372     6.0627     6.5382 H       
  42 H42            6.6771     4.9468     3.5882 H       
  43 H43            6.7200     6.4847     2.6728 H       
  44 H44            6.8921     8.8393     6.4772 H       
  45 H45            7.5736     7.3746     7.2245 H       
  46 H46            9.8388     8.0431     6.4692 H       
  47 H47            9.1573     9.5078     5.7218 H       
  48 H48            8.3386    10.2582     7.9389 H       
  49 H49            9.0201     8.7935     8.6862 H       
  50 H50           11.2853     9.4620     7.9309 H       
  51 H51           10.6038    10.9267     7.1835 H       
  52 H52           11.5472    11.4261     9.4216 H       
  53 H53            9.7852    11.6771     9.4006 H       
  54 H54           10.4667    10.2124    10.1479 H       
@<TRIPOS>BOND
   1    1    2 ar
   2    1    5 ar
   3    1   10 1
   4    2   11 1
   5    2    3 ar
   6    3    4 ar
   7    4    7 ar
   8    5    7 ar
   9    5    6 1
  10    6    9 2
  11    6   12 1
  12    7    8 1
  13    8    9 1
  14    9   13 1
  15   10   28 1
  16   10   29 1
  17   10   30 1
  18   11   31 1
  19   11   32 1
  20   11   33 1
  21   12   34 1
  22   12   35 1
  23   13   14 2
  24   13   15 am
  25   15   16 1
  26   15   36 1
  27   16   17 1
  28   16   20 1
  29   16   37 1
  30   17   18 1
  31   17   38 1
  32   17   39 1
  33   18   19 1
  34   18   40 1
  35   18   41 1
  36   19   20 1
  37   19   21 am
  38   20   42 1
  39   20   43 1
  40   21   22 2
  41   21   23 1
  42   23   24 1
  43   23   44 1
  44   23   45 1
  45   24   25 1
  46   24   46 1
  47   24   47 1
  48   25   26 1
  49   25   48 1
  50   25   49 1
  51   26   27 1
  52   26   50 1
  53   26   51 1
  54   27   52 1
  55   27   53 1
  56   27   54 1

#	End of record

