#	Name: ASD09740435
#	Creating user name:	WinNT
#	Creation time:	15. 06. 2019 21:23

#	Modifying user name:	WinNT
#	Modification time:	15. 06. 2019 21:23

#	Program:	/corina/corina34_cracker 3.40 0067  02.08.2006

@<TRIPOS>MOLECULE
ASD09740435
  60   63    0    0    0
SMALL
NO_CHARGES


@<TRIPOS>ATOM
   1 N1             0.7275     1.4817     1.0707 N.2     
   2 C2             0.6212     0.1857     1.2272 C.2     
   3 C3             1.8823     2.0219     1.3430 C.2     
   4 S4             3.0016     0.7664     1.8661 S.3     
   5 C5             1.7366    -0.4432     1.6579 C.2     
   6 C6             2.2020     3.4600     1.2298 C.ar    
   7 C7             1.2277     4.3583     0.8025 C.ar    
   8 C8             3.4815     3.9198     1.5573 C.ar    
   9 C9             3.7850     5.2598     1.4540 C.ar    
  10 C10            2.8232     6.1634     1.0241 C.ar    
  11 C11            1.5351     5.7142     0.6975 C.ar    
  12 O12            3.1274     7.4817     0.9248 O.3     
  13 C13            4.4861     7.8539     1.1643 C.3     
  14 C14            4.7908     9.1664     0.4396 C.3     
  15 C15            4.7071     8.0378     2.6671 C.3     
  16 C16            0.5407     6.6443     0.2537 C.1     
  17 N17           -0.2481     7.3821    -0.0984 N.1     
  18 C18            1.8722    -1.8930     1.9112 C.ar    
  19 C19            2.9452    -2.6021     1.3624 C.ar    
  20 C20            3.0663    -3.9549     1.6030 C.ar    
  21 C21            2.1250    -4.6054     2.3863 C.ar    
  22 C22            1.0620    -3.9091     2.9301 C.ar    
  23 C23            0.9333    -2.5544     2.7026 C.ar    
  24 C24            4.0870    -2.1319     0.4874 C.3     
  25 C25            5.1513    -3.2460     0.5796 C.3     
  26 C26            4.2988    -4.4906     0.9059 C.3     
  27 N27            3.9233    -5.1870    -0.3271 N.am    
  28 C28            3.7998    -7.7176     0.7278 C.3     
  29 C29            4.2039    -9.1573     0.5403 C.2     
  30 S30            4.4878    -6.7162    -0.6192 S.o2    
  31 O31            3.8971    -7.0766    -1.8603 O.2     
  32 O32            5.8977    -6.6008    -0.4849 O.2     
  33 O33            3.8061   -10.0865     1.4235 O.3     
  34 O34            4.8860    -9.4751    -0.4050 O.2     
  35 C35            4.2326   -11.4529     1.1800 C.3     
  36 H36           -0.2975    -0.3451     1.0257 H       
  37 H37            0.2377     4.0061     0.5529 H       
  38 H38            4.2344     3.2220     1.8928 H       
  39 H39            4.7749     5.6084     1.7088 H       
  40 H40            5.1480     7.0716     0.7929 H       
  41 H41            4.1289     9.9487     0.8111 H       
  42 H42            5.8272     9.4503     0.6223 H       
  43 H43            4.6334     9.0353    -0.6310 H       
  44 H44            4.0452     8.8201     3.0386 H       
  45 H45            4.4901     7.1028     3.1834 H       
  46 H46            5.7435     8.3217     2.8498 H       
  47 H47            2.2230    -5.6646     2.5727 H       
  48 H48            0.3341    -4.4252     3.5385 H       
  49 H49            0.1029    -2.0100     3.1273 H       
  50 H50            3.7506    -2.0144    -0.5428 H       
  51 H51            4.4899    -1.1917     0.8640 H       
  52 H52            5.6677    -3.3686    -0.3725 H       
  53 H53            5.8595    -3.0400     1.3822 H       
  54 H54            4.8465    -5.1612     1.5681 H       
  55 H55            3.3440    -4.7524    -0.9724 H       
  56 H56            2.7126    -7.6412     0.7186 H       
  57 H57            4.1815    -7.3544     1.6820 H       
  58 H58            3.8437   -12.1005     1.9657 H       
  59 H59            3.8527   -11.7854     0.2139 H       
  60 H60            5.3217   -11.4985     1.1774 H       
@<TRIPOS>BOND
   1    1    2 1
   2    1    3 2
   3    2    5 2
   4    2   36 1
   5    3    4 1
   6    3    6 1
   7    4    5 1
   8    5   18 1
   9    6    7 ar
  10    6    8 ar
  11    7   11 ar
  12    7   37 1
  13    8    9 ar
  14    8   38 1
  15    9   10 ar
  16    9   39 1
  17   10   11 ar
  18   10   12 1
  19   11   16 1
  20   12   13 1
  21   13   14 1
  22   13   15 1
  23   13   40 1
  24   14   41 1
  25   14   42 1
  26   14   43 1
  27   15   44 1
  28   15   45 1
  29   15   46 1
  30   16   17 3
  31   18   19 ar
  32   18   23 ar
  33   19   20 ar
  34   19   24 1
  35   20   21 ar
  36   20   26 1
  37   21   22 ar
  38   21   47 1
  39   22   23 ar
  40   22   48 1
  41   23   49 1
  42   24   25 1
  43   24   50 1
  44   24   51 1
  45   25   26 1
  46   25   52 1
  47   25   53 1
  48   26   27 1
  49   26   54 1
  50   27   30 am
  51   27   55 1
  52   28   29 1
  53   28   30 1
  54   28   56 1
  55   28   57 1
  56   29   33 1
  57   29   34 2
  58   30   31 2
  59   30   32 2
  60   33   35 1
  61   35   58 1
  62   35   59 1
  63   35   60 1

#	End of record

