#	Name: ASD01883465
#	Creating user name:	WinNT
#	Creation time:	15. 06. 2019 19:46

#	Modifying user name:	WinNT
#	Modification time:	15. 06. 2019 19:46

#	Program:	/corina/corina34_cracker 3.40 0067  02.08.2006

@<TRIPOS>MOLECULE
ASD01883465
  54   56    0    0    0
SMALL
NO_CHARGES


@<TRIPOS>ATOM
   1 N1            -0.0080     1.3271     0.0354 N.am    
   2 C2            -0.3623     0.6471    -1.0708 C.2     
   3 C3            -1.5938    -0.0487    -1.1070 C.2     
   4 C4            -2.4239    -0.0108     0.0261 C.2     
   5 C5            -1.9981     0.7175     1.1524 C.2     
   6 C6            -0.8092     1.3586     1.1319 C.2     
   7 O7             0.3768     0.6309    -2.0406 O.2     
   8 C8            -1.9868    -0.7769    -2.2757 C.1     
   9 N9            -2.2985    -1.3546    -3.2029 N.1     
  10 N10           -3.6309    -0.6732     0.0341 N.pl3   
  11 C11           -4.8919     0.0702     0.1608 C.3     
  12 C12           -5.6944    -0.5155     1.3268 C.3     
  13 C13           -5.8708    -2.0207     1.1144 C.3     
  14 C14           -4.4985    -2.6976     1.0843 C.3     
  15 C15           -3.6827    -2.1362    -0.0901 C.3     
  16 C16            1.2701     2.0427     0.0594 C.3     
  17 C17            1.0645     3.4711    -0.4488 C.3     
  18 C18            2.3993     4.2185    -0.4237 C.3     
  19 C19            2.2199     5.6040    -1.0473 C.3     
  20 C20            2.8729     4.3680     1.0235 C.3     
  21 N21           -6.6662    -2.5785     2.2109 N.am    
  22 C22           -6.3126    -2.5274     3.5068 C.2     
  23 C23           -7.3604    -3.2084     4.3593 C.3     
  24 C24           -8.1879    -4.0393     3.3514 C.3     
  25 C25           -7.9546    -3.2594     2.0364 C.3     
  26 O26           -5.3005    -2.0109     3.9307 O.2     
  27 H27           -2.6200     0.7608     2.0343 H       
  28 H28           -0.4930     1.9144     2.0022 H       
  29 H29           -4.6785     1.1212     0.3555 H       
  30 H30           -5.4656    -0.0236    -0.7613 H       
  31 H31           -5.1602    -0.3399     2.2606 H       
  32 H32           -6.6729    -0.0373     1.3715 H       
  33 H33           -6.3831    -2.1964     0.1685 H       
  34 H34           -3.9756    -2.5016     2.0204 H       
  35 H35           -4.6258    -3.7726     0.9564 H       
  36 H36           -4.1593    -2.4118    -1.0309 H       
  37 H37           -2.6709    -2.5405    -0.0585 H       
  38 H38            1.6512     2.0716     1.0802 H       
  39 H39            1.9865     1.5287    -0.5814 H       
  40 H40            0.6835     3.4422    -1.4696 H       
  41 H41            0.3482     3.9852     0.1920 H       
  42 H42            3.1407     3.6573    -0.9924 H       
  43 H43            1.4785     6.1652    -0.4785 H       
  44 H44            3.1708     6.1365    -1.0294 H       
  45 H45            1.8825     5.4975    -2.0783 H       
  46 H46            3.0008     3.3809     1.4678 H       
  47 H47            3.8239     4.9004     1.0414 H       
  48 H48            2.1315     4.9292     1.5923 H       
  49 H49           -6.8891    -3.8603     5.0949 H       
  50 H50           -7.9910    -2.4685     4.8523 H       
  51 H51           -7.8059    -5.0576     3.2787 H       
  52 H52           -9.2443    -4.0388     3.6199 H       
  53 H53           -8.7534    -2.5342     1.8811 H       
  54 H54           -7.9008    -3.9485     1.1936 H       
@<TRIPOS>BOND
   1    1    2 am
   2    1   16 1
   3    1    6 1
   4    2    3 1
   5    2    7 2
   6    3    4 2
   7    3    8 1
   8    4    5 1
   9    4   10 1
  10    5    6 2
  11    5   27 1
  12    6   28 1
  13    8    9 3
  14   10   11 1
  15   10   15 1
  16   11   12 1
  17   11   29 1
  18   11   30 1
  19   12   13 1
  20   12   31 1
  21   12   32 1
  22   13   14 1
  23   13   21 1
  24   13   33 1
  25   14   15 1
  26   14   34 1
  27   14   35 1
  28   15   36 1
  29   15   37 1
  30   16   17 1
  31   16   38 1
  32   16   39 1
  33   17   18 1
  34   17   40 1
  35   17   41 1
  36   18   19 1
  37   18   20 1
  38   18   42 1
  39   19   43 1
  40   19   44 1
  41   19   45 1
  42   20   46 1
  43   20   47 1
  44   20   48 1
  45   21   22 am
  46   21   25 1
  47   22   23 1
  48   22   26 2
  49   23   24 1
  50   23   49 1
  51   23   50 1
  52   24   25 1
  53   24   51 1
  54   24   52 1
  55   25   53 1
  56   25   54 1

#	End of record

