#	Name: ASD00843372
#	Creating user name:	WinNT
#	Creation time:	15. 06. 2019 18:46

#	Modifying user name:	WinNT
#	Modification time:	15. 06. 2019 18:46

#	Program:	/corina/corina34_cracker 3.40 0067  02.08.2006

@<TRIPOS>MOLECULE
ASD00843372
  90   95    0    0    0
SMALL
NO_CHARGES


@<TRIPOS>ATOM
   1 N1             0.8888     1.0185    -0.4083 N.ar    
   2 C2             1.0526    -0.2736    -0.6378 C.ar    
   3 C3             0.8999    -1.1994     0.3866 C.ar    
   4 C4             0.5731    -0.7524     1.6548 C.ar    
   5 C5             0.4099     0.6118     1.8544 C.ar    
   6 C6             0.5771     1.4748     0.7901 C.ar    
   7 C7             1.0870    -2.6708     0.1203 C.3     
   8 C8             0.7282    -3.4820     1.3471 C.2     
   9 C9             0.2430    -3.1091    -1.0782 C.3     
  10 C10           -1.1952    -2.7220    -0.8483 C.2     
  11 N11           -2.1452    -3.1087    -1.7226 N.am    
  12 O12           -1.4977    -2.0626     0.1236 O.2     
  13 C13           -3.5355    -2.6510    -1.5780 C.3     
  14 C14           -3.9997    -2.0732    -2.9192 C.3     
  15 N15           -3.7797    -3.0663    -3.9791 N.3     
  16 C16           -2.3509    -3.3685    -4.1379 C.3     
  17 C17           -1.8179    -3.9946    -2.8501 C.3     
  18 N18           -4.3616    -2.6244    -5.2361 N.3     
  19 C19           -4.1415    -3.6179    -6.2964 C.3     
  20 C20           -4.8357    -3.1536    -7.5790 C.3     
  21 N21           -4.3046    -1.8411    -7.9726 N.3     
  22 C22           -4.5247    -0.8476    -6.9124 C.3     
  23 C23           -3.8306    -1.3119    -5.6298 C.3     
  24 C24           -4.8926    -1.3946    -9.2427 C.3     
  25 O25           -0.3565    -3.5282     1.8877 O.2     
  26 N26            1.8360    -4.1416     1.7241 N.am    
  27 C27            2.5473    -2.9857    -0.1126 C.ar    
  28 C28            2.9200    -3.8749     0.8925 C.ar    
  29 C29            3.4492    -2.5699    -1.0590 C.ar    
  30 C30            4.7660    -3.0422    -1.0205 C.ar    
  31 C31            5.1479    -3.9363    -0.0130 C.ar    
  32 C32            4.2319    -4.3475     0.9314 C.ar    
  33 F33            6.4167    -4.3980     0.0329 F       
  34 C34            1.4904    -6.7712     2.4591 C.ar    
  35 C35            0.2180    -7.0296     1.9710 C.ar    
  36 C36            2.4347    -7.7793     2.4914 C.ar    
  37 C37            2.1123    -9.0447     2.0374 C.ar    
  38 C38            0.8445    -9.3049     1.5503 C.ar    
  39 C39           -0.1031    -8.3006     1.5163 C.ar    
  40 H40            0.5951   -10.2942     1.1962 H       
  41 O41           -0.7126    -6.0398     1.9386 O.3     
  42 C42           -2.0017    -6.3780     1.4230 C.3     
  43 C43           -2.9074    -5.1456     1.4656 C.3     
  44 S44            1.9045    -5.1567     3.0307 S.o2    
  45 O45            3.2680    -5.2088     3.4273 O.2     
  46 O46            0.8559    -4.7588     3.9033 O.2     
  47 O47            1.3725    -0.6991    -1.8858 O.3     
  48 C48            1.4652     0.2964    -2.9067 C.3     
  49 C49            1.9314    -0.3528    -4.2113 C.3     
  50 F50            3.1431    -1.0177    -3.9944 F       
  51 F51            0.9680    -1.2693    -4.6464 F       
  52 C52            5.7151    -2.6147    -2.0039 C.1     
  53 N53            6.4680    -2.2757    -2.7841 N.1     
  54 H54            0.4476    -1.4489     2.4706 H       
  55 H55            0.1544     0.9936     2.8318 H       
  56 H56            0.4516     2.5370     0.9401 H       
  57 H57            0.6111    -2.6200    -1.9801 H       
  58 H58            0.3138    -4.1903    -1.1965 H       
  59 H59           -4.1711    -3.4924    -1.3022 H       
  60 H60           -3.5892    -1.8804    -0.8091 H       
  61 H61           -5.0608    -1.8304    -2.8629 H       
  62 H62           -3.4310    -1.1706    -3.1428 H       
  63 H63           -2.2163    -4.0651    -4.9653 H       
  64 H64           -1.8052    -2.4479    -4.3444 H       
  65 H65           -0.7369    -4.1147    -2.9216 H       
  66 H66           -2.2875    -4.9656    -2.6934 H       
  67 H67           -3.0722    -3.7236    -6.4794 H       
  68 H68           -4.5544    -4.5779    -5.9866 H       
  69 H69           -4.6494    -3.8747    -8.3748 H       
  70 H70           -5.9085    -3.0741    -7.4035 H       
  71 H71           -4.1118     0.1125    -7.2222 H       
  72 H72           -5.5940    -0.7419    -6.7294 H       
  73 H73           -4.0168    -0.5907    -4.8340 H       
  74 H74           -2.7578    -1.3914    -5.8052 H       
  75 H75           -5.9743    -1.3158    -9.1344 H       
  76 H76           -4.4824    -0.4210    -9.5106 H       
  77 H77           -4.6574    -2.1159   -10.0253 H       
  78 H78            3.1437    -1.8802    -1.8320 H       
  79 H79            4.5318    -5.0375     1.7063 H       
  80 H80            3.4255    -7.5786     2.8714 H       
  81 H81            2.8520    -9.8312     2.0628 H       
  82 H82           -1.0934    -8.5045     1.1365 H       
  83 H83           -1.9027    -6.7207     0.3931 H       
  84 H84           -2.4389    -7.1713     2.0294 H       
  85 H85           -3.8907    -5.4036     1.0723 H       
  86 H86           -3.0065    -4.8029     2.4956 H       
  87 H87           -2.4702    -4.3523     0.8592 H       
  88 H88            0.4876     0.7542    -3.0578 H       
  89 H89            2.1815     1.0607    -2.6050 H       
  90 H90            2.0701     0.4166    -4.9708 H       
@<TRIPOS>BOND
   1    1    2 ar
   2    1    6 ar
   3    2    3 ar
   4    2   47 1
   5    3    4 ar
   6    3    7 1
   7    4    5 ar
   8    4   54 1
   9    5    6 ar
  10    5   55 1
  11    6   56 1
  12    7    8 1
  13    7    9 1
  14    7   27 1
  15    8   25 2
  16    8   26 am
  17    9   10 1
  18    9   57 1
  19    9   58 1
  20   10   11 am
  21   10   12 2
  22   11   13 1
  23   11   17 1
  24   13   14 1
  25   13   59 1
  26   13   60 1
  27   14   15 1
  28   14   61 1
  29   14   62 1
  30   15   16 1
  31   15   18 1
  32   16   17 1
  33   16   63 1
  34   16   64 1
  35   17   65 1
  36   17   66 1
  37   18   19 1
  38   18   23 1
  39   19   20 1
  40   19   67 1
  41   19   68 1
  42   20   21 1
  43   20   69 1
  44   20   70 1
  45   21   22 1
  46   21   24 1
  47   22   23 1
  48   22   71 1
  49   22   72 1
  50   23   73 1
  51   23   74 1
  52   24   75 1
  53   24   76 1
  54   24   77 1
  55   26   44 am
  56   26   28 1
  57   27   28 ar
  58   27   29 ar
  59   28   32 ar
  60   29   30 ar
  61   29   78 1
  62   30   31 ar
  63   30   52 1
  64   31   32 ar
  65   31   33 1
  66   32   79 1
  67   34   35 ar
  68   34   36 ar
  69   34   44 1
  70   35   41 1
  71   35   39 ar
  72   36   37 ar
  73   36   80 1
  74   37   38 ar
  75   37   81 1
  76   38   39 ar
  77   38   40 1
  78   39   82 1
  79   41   42 1
  80   42   43 1
  81   42   83 1
  82   42   84 1
  83   43   85 1
  84   43   86 1
  85   43   87 1
  86   44   45 2
  87   44   46 2
  88   47   48 1
  89   48   49 1
  90   48   88 1
  91   48   89 1
  92   49   50 1
  93   49   51 1
  94   49   90 1
  95   52   53 3

#	End of record

