#	Name: ASD01410120
#	Creating user name:	WinNT
#	Creation time:	15. 06. 2019 19:16

#	Modifying user name:	WinNT
#	Modification time:	15. 06. 2019 19:16

#	Program:	/corina/corina34_cracker 3.40 0067  02.08.2006

@<TRIPOS>MOLECULE
ASD01410120
  72   77    0    0    0
SMALL
NO_CHARGES


@<TRIPOS>ATOM
   1 C1             0.0034     1.4308     0.0024 C.ar    
   2 C2             0.0101     0.0596     0.3206 C.ar    
   3 C3            -1.1695    -0.5776     0.6876 C.ar    
   4 C4            -2.3398     0.1228     0.7409 C.ar    
   5 C5            -2.3654     1.4881     0.4271 C.ar    
   6 C6            -1.1937     2.1444     0.0629 C.ar    
   7 N7             1.2773     1.7753    -0.3135 N.2     
   8 C8             2.0539     0.7240    -0.2122 C.2     
   9 N9             1.3158    -0.3620     0.1773 N.pl3   
  10 C10           -3.6386     2.2337     0.4878 C.2     
  11 N11           -4.7738     1.6008     0.8447 N.am    
  12 C12           -6.0369     2.3406     0.9049 C.3     
  13 C13            3.5071     0.7123    -0.4787 C.2     
  14 C14            4.3462    -0.4576    -0.7707 C.2     
  15 C15            5.5915     0.0140    -0.9427 C.2     
  16 O16            5.5817     1.3464    -0.7834 O.3     
  17 C17            4.3460     1.7843    -0.5107 C.2     
  18 C18            1.8195    -1.7195     0.4003 C.3     
  19 C19            1.4239    -2.1862     1.8027 C.3     
  20 C20            1.9499    -3.6039     2.0356 C.3     
  21 C21            1.3469    -4.5491     0.9945 C.3     
  22 C22            1.7425    -4.0824    -0.4078 C.3     
  23 C23            1.2165    -2.6647    -0.6408 C.3     
  24 O24           -3.6628     3.4184     0.2159 O.2     
  25 C25           -7.2050     1.3718     0.7102 C.3     
  26 C26           -7.1493     0.7905    -0.6790 C.2     
  27 C27           -6.3674    -0.3723    -1.1061 C.ar    
  28 C28           -6.6310    -0.5363    -2.4776 C.ar    
  29 N29           -7.5103     0.4608    -2.8440 N.pl3   
  30 C30           -7.8114     1.2367    -1.7583 C.2     
  31 C31           -5.4992    -1.2496    -0.4523 C.ar    
  32 C32           -4.9045    -2.2746    -1.1604 C.ar    
  33 C33           -5.1673    -2.4340    -2.5187 C.ar    
  34 C34           -6.0220    -1.5756    -3.1731 C.ar    
  35 C35           -6.1611     3.0139     2.2474 C.2     
  36 O36           -5.2845     2.8888     3.0695 O.2     
  37 O37           -7.2456     3.7527     2.5298 O.3     
  38 O38           -4.0584    -3.1318    -0.5291 O.3     
  39 C39           -3.4772    -4.1700    -1.3205 C.3     
  40 C40           -2.5751    -5.0142    -0.4576 C.2     
  41 O41           -2.4434    -4.7536     0.7148 O.2     
  42 O42           -1.9179    -6.0558    -0.9915 O.3     
  43 H43           -1.1600    -1.6298     0.9310 H       
  44 H44           -3.2525    -0.3790     1.0265 H       
  45 H45           -1.2124     3.1969    -0.1788 H       
  46 H46           -4.7545     0.6556     1.0616 H       
  47 H47           -6.0546     3.0940     0.1175 H       
  48 H48            4.0266    -1.4873    -0.8340 H       
  49 H49            6.4616    -0.5832    -1.1723 H       
  50 H50            4.0639     2.8125    -0.3387 H       
  51 H51            2.9057    -1.7236     0.3090 H       
  52 H52            1.8534    -1.5128     2.5444 H       
  53 H53            0.3377    -2.1821     1.8940 H       
  54 H54            3.0361    -3.6080     1.9443 H       
  55 H55            1.6680    -3.9364     3.0347 H       
  56 H56            1.7217    -5.5591     1.1605 H       
  57 H57            0.2608    -4.5450     1.0859 H       
  58 H58            2.8287    -4.0865    -0.4992 H       
  59 H59            1.3130    -4.7557    -1.1495 H       
  60 H60            0.1304    -2.6605    -0.5494 H       
  61 H61            1.4984    -2.3321    -1.6398 H       
  62 H62           -7.1366     0.5681     1.4434 H       
  63 H63           -8.1459     1.9058     0.8432 H       
  64 H64           -7.8651     0.5905    -3.7374 H       
  65 H65           -8.4771     2.0871    -1.7694 H       
  66 H66           -5.2940    -1.1266     0.6009 H       
  67 H67           -4.6964    -3.2387    -3.0638 H       
  68 H68           -6.2187    -1.7085    -4.2267 H       
  69 H69           -7.2804     4.1651     3.4038 H       
  70 H70           -4.2673    -4.7935    -1.7390 H       
  71 H71           -2.8962    -3.7279    -2.1299 H       
  72 H72           -1.3510    -6.5678    -0.3986 H       
@<TRIPOS>BOND
   1    1    2 ar
   2    1    7 1
   3    1    6 ar
   4    2    3 ar
   5    2    9 1
   6    3    4 ar
   7    3   43 1
   8    4    5 ar
   9    4   44 1
  10    5    6 ar
  11    5   10 1
  12    6   45 1
  13    7    8 2
  14    8    9 1
  15    8   13 1
  16    9   18 1
  17   10   11 am
  18   10   24 2
  19   11   12 1
  20   11   46 1
  21   12   25 1
  22   12   35 1
  23   12   47 1
  24   13   14 1
  25   13   17 2
  26   14   15 2
  27   14   48 1
  28   15   16 1
  29   15   49 1
  30   16   17 1
  31   17   50 1
  32   18   19 1
  33   18   23 1
  34   18   51 1
  35   19   20 1
  36   19   52 1
  37   19   53 1
  38   20   21 1
  39   20   54 1
  40   20   55 1
  41   21   22 1
  42   21   56 1
  43   21   57 1
  44   22   23 1
  45   22   58 1
  46   22   59 1
  47   23   60 1
  48   23   61 1
  49   25   26 1
  50   25   62 1
  51   25   63 1
  52   26   27 1
  53   26   30 2
  54   27   28 ar
  55   27   31 ar
  56   28   29 1
  57   28   34 ar
  58   29   30 1
  59   29   64 1
  60   30   65 1
  61   31   32 ar
  62   31   66 1
  63   32   33 ar
  64   32   38 1
  65   33   34 ar
  66   33   67 1
  67   34   68 1
  68   35   36 2
  69   35   37 1
  70   37   69 1
  71   38   39 1
  72   39   40 1
  73   39   70 1
  74   39   71 1
  75   40   41 2
  76   40   42 1
  77   42   72 1

#	End of record

