#	Name: ASD01411151
#	Creating user name:	WinNT
#	Creation time:	15. 06. 2019 19:19

#	Modifying user name:	WinNT
#	Modification time:	15. 06. 2019 19:19

#	Program:	/corina/corina34_cracker 3.40 0067  02.08.2006

@<TRIPOS>MOLECULE
ASD01411151
  88   93    0    0    0
SMALL
NO_CHARGES


@<TRIPOS>ATOM
   1 C1             0.1646     1.3228     0.1118 C.ar    
   2 C2            -1.0499     1.9580    -0.1349 C.ar    
   3 C3            -2.2250     1.2300    -0.1640 C.ar    
   4 C4            -2.2007    -0.1398     0.0524 C.ar    
   5 C5            -0.9791    -0.7851     0.3011 C.ar    
   6 C6             0.2047    -0.0415     0.3238 C.ar    
   7 O7             1.3154     2.0472     0.1385 O.3     
   8 C8             1.6143     2.7264     1.2742 C.ar    
   9 N9            -3.3857    -0.8734     0.0235 N.am    
  10 C10           -4.0177    -1.1784     1.1741 C.2     
  11 C11           -5.2348    -2.0668     1.1527 C.3     
  12 O12           -3.6070    -0.7378     2.2268 O.2     
  13 C13           -5.6344    -2.4190     2.5870 C.3     
  14 C14           -6.3894    -1.3336     0.4670 C.3     
  15 C15           -7.6251    -2.2356     0.4453 C.3     
  16 C16           -8.0247    -2.5879     1.8796 C.3     
  17 C17           -6.8700    -3.3210     2.5652 C.3     
  18 C18           -9.2603    -3.4899     1.8578 C.3     
  19 N19            0.8500     2.5819     2.3444 N.ar    
  20 C20           -3.9441    -1.3128    -1.2577 C.3     
  21 C21           -2.9058    -2.1514    -2.0057 C.3     
  22 C22            2.7229     3.5627     1.3040 C.ar    
  23 C23            3.0168     4.2500     2.4690 C.ar    
  24 C24            2.1871     4.0754     3.5678 C.ar    
  25 C25            1.1048     3.2235     3.4686 C.ar    
  26 C26            2.4679     4.8031     4.8573 C.3     
  27 F27           -1.0801     3.2920    -0.3464 F       
  28 C28            1.7439     6.1510     4.8503 C.3     
  29 C29            1.9128     6.8418     6.1831 C.ar    
  30 C30           -3.4889    -2.6104    -3.3437 C.3     
  31 C31           -3.8588    -1.3873    -4.1852 C.3     
  32 C32           -4.8971    -0.5487    -3.4372 C.3     
  33 C33           -4.3140    -0.0897    -2.0992 C.3     
  34 O34           -4.4035    -1.8159    -5.4349 O.3     
  35 C35           -4.1644    -0.9105    -6.5143 C.3     
  36 C36            2.5755     8.0411     5.9165 C.ar    
  37 C37            2.8332     8.1382     4.4694 C.2     
  38 C38            2.3710     7.0757     3.8335 C.2     
  39 N39            1.5691     6.5187     7.4098 N.ar    
  40 C40            1.8329     7.3073     8.4350 C.ar    
  41 C41            2.4861     8.5136     8.2567 C.ar    
  42 C42            2.8692     8.8976     6.9837 C.ar    
  43 C43            3.5944     3.7191     0.0846 C.3     
  44 F44            4.6370     4.6081     0.3674 F       
  45 F45            4.1261     2.4750    -0.2713 F       
  46 F46            2.8293     4.2195    -0.9744 F       
  47 C47           -0.9440    -2.2391     0.5318 C.2     
  48 O48           -1.9815    -2.8669     0.6112 O.2     
  49 O49            0.2387    -2.8735     0.6550 O.3     
  50 H50           -3.1636     1.7290    -0.3551 H       
  51 H51            1.1480    -0.5319     0.5142 H       
  52 H52           -5.0078    -2.9808     0.6039 H       
  53 H53           -4.8118    -2.9414     3.0755 H       
  54 H54           -5.8614    -1.5050     3.1358 H       
  55 H55           -6.6164    -0.4196     1.0158 H       
  56 H56           -6.1048    -1.0827    -0.5548 H       
  57 H57           -8.4477    -1.7133    -0.0432 H       
  58 H58           -7.3981    -3.1496    -0.1035 H       
  59 H59           -8.2517    -1.6739     2.4284 H       
  60 H60           -6.6430    -4.2350     2.0164 H       
  61 H61           -7.1547    -3.5720     3.5871 H       
  62 H62           -9.0333    -4.4039     1.3090 H       
  63 H63           -9.5450    -3.7408     2.8796 H       
  64 H64          -10.0829    -2.9676     1.3693 H       
  65 H65           -4.8357    -1.9137    -1.0785 H       
  66 H66           -2.0142    -1.5506    -2.1850 H       
  67 H67           -2.6423    -3.0228    -1.4063 H       
  68 H68            3.8724     4.9069     2.5218 H       
  69 H69            0.4559     3.0844     4.3207 H       
  70 H70            2.1136     4.2048     5.6967 H       
  71 H71            3.5409     4.9675     4.9555 H       
  72 H72            0.6858     6.0089     4.6307 H       
  73 H73           -2.7492    -3.2078    -3.8767 H       
  74 H74           -4.3805    -3.2112    -3.1645 H       
  75 H75           -2.9672    -0.7864    -4.3644 H       
  76 H76           -5.1606     0.3227    -4.0367 H       
  77 H77           -5.7887    -1.1495    -3.2580 H       
  78 H78           -5.0537     0.5077    -1.5663 H       
  79 H79           -3.4224     0.5111    -2.2784 H       
  80 H80           -4.6089    -1.3076    -7.4269 H       
  81 H81           -4.6114     0.0564    -6.2833 H       
  82 H82           -3.0904    -0.7897    -6.6560 H       
  83 H83            3.3330     8.9678     3.9914 H       
  84 H84            2.4315     6.8988     2.7698 H       
  85 H85            1.5340     7.0061     9.4281 H       
  86 H86            2.6958     9.1499     9.1038 H       
  87 H87            3.3806     9.8343     6.8178 H       
  88 H88            0.2111    -3.8283     0.8056 H       
@<TRIPOS>BOND
   1    1    2 ar
   2    1    7 1
   3    1    6 ar
   4    2    3 ar
   5    2   27 1
   6    3    4 ar
   7    3   50 1
   8    4    5 ar
   9    4    9 1
  10    5    6 ar
  11    5   47 1
  12    6   51 1
  13    7    8 1
  14    8   22 ar
  15    8   19 ar
  16    9   10 am
  17    9   20 1
  18   10   11 1
  19   10   12 2
  20   11   13 1
  21   11   14 1
  22   11   52 1
  23   13   17 1
  24   13   53 1
  25   13   54 1
  26   14   15 1
  27   14   55 1
  28   14   56 1
  29   15   16 1
  30   15   57 1
  31   15   58 1
  32   16   17 1
  33   16   18 1
  34   16   59 1
  35   17   60 1
  36   17   61 1
  37   18   62 1
  38   18   63 1
  39   18   64 1
  40   19   25 ar
  41   20   21 1
  42   20   33 1
  43   20   65 1
  44   21   30 1
  45   21   66 1
  46   21   67 1
  47   22   23 ar
  48   22   43 1
  49   23   24 ar
  50   23   68 1
  51   24   25 ar
  52   24   26 1
  53   25   69 1
  54   26   28 1
  55   26   70 1
  56   26   71 1
  57   28   29 1
  58   28   38 1
  59   28   72 1
  60   29   36 ar
  61   29   39 ar
  62   30   31 1
  63   30   73 1
  64   30   74 1
  65   31   32 1
  66   31   34 1
  67   31   75 1
  68   32   33 1
  69   32   76 1
  70   32   77 1
  71   33   78 1
  72   33   79 1
  73   34   35 1
  74   35   80 1
  75   35   81 1
  76   35   82 1
  77   36   37 1
  78   36   42 ar
  79   37   38 2
  80   37   83 1
  81   38   84 1
  82   39   40 ar
  83   40   41 ar
  84   40   85 1
  85   41   42 ar
  86   41   86 1
  87   42   87 1
  88   43   44 1
  89   43   45 1
  90   43   46 1
  91   47   48 2
  92   47   49 1
  93   49   88 1

#	End of record

