#	Name: ASD01700004
#	Creating user name:	WinNT
#	Creation time:	15. 06. 2019 19:22

#	Modifying user name:	WinNT
#	Modification time:	15. 06. 2019 19:22

#	Program:	/corina/corina34_cracker 3.40 0067  02.08.2006

@<TRIPOS>MOLECULE
ASD01700004
  64   65    0    0    0
SMALL
NO_CHARGES


@<TRIPOS>ATOM
   1 N1            -0.0185     1.5141     0.0104 N.3     
   2 C2             0.0021    -0.0041     0.0020 C.3     
   3 C3            -1.4402    -0.4716    -0.2252 C.3     
   4 N4            -1.7459    -0.1480    -1.6547 N.3     
   5 C5            -3.1123    -0.6639    -1.9384 C.3     
   6 C6            -2.9983    -1.7511    -3.0083 C.3     
   7 C7            -1.6802    -2.5111    -2.8364 C.3     
   8 N8            -0.7369    -2.1293    -3.8773 N.3     
   9 C9             0.6645    -2.2542    -3.5051 C.3     
  10 C10            1.2876    -0.8679    -3.3146 C.3     
  11 N11            2.1327    -0.8532    -2.1290 N.3     
  12 C12            2.5952     0.4662    -1.7280 C.3     
  13 C13            2.3567     0.6959    -0.2332 C.3     
  14 C14            1.4518     1.8889    -0.0017 C.3     
  15 C15           -1.8130     1.3453    -1.6807 C.3     
  16 C16           -0.4021     1.8668    -1.4236 C.3     
  17 H17            0.6073    -0.3472    -0.8261 H       
  18 H18            0.3604    -0.3553     0.9604 H       
  19 H19           -1.5234    -1.5385    -0.0874 H       
  20 H20           -2.1235     0.0814     0.4029 H       
  21 H21           -3.5180    -1.0760    -1.0223 H       
  22 H22           -3.7171     0.1592    -2.3014 H       
  23 H23           -3.8320    -2.4475    -2.9102 H       
  24 H24           -3.0252    -1.2932    -3.9977 H       
  25 H25           -1.2607    -2.2947    -1.8525 H       
  26 H26           -1.8814    -3.5853    -2.8946 H       
  27 H27           -0.9897    -2.2523    -4.8107 H       
  28 H28            0.7588    -2.8203    -2.5763 H       
  29 H29            1.2121    -2.7809    -4.2922 H       
  30 H30            1.8822    -0.6223    -4.1986 H       
  31 H31            0.4871    -0.1313    -3.2174 H       
  32 H32            2.0051    -1.5387    -1.4498 H       
  33 H33            3.6704     0.5524    -1.9266 H       
  34 H34            2.0849     1.2407    -2.3020 H       
  35 H35            2.0134    -0.2082     0.2471 H       
  36 H36            3.3431     0.9239     0.2193 H       
  37 H37            1.5988     2.6347    -0.7876 H       
  38 H38            1.6808     2.3528     0.9632 H       
  39 H39           -2.1621     1.6499    -2.6597 H       
  40 H40           -2.4897     1.6665    -0.8986 H       
  41 H41           -0.3758     2.9487    -1.5175 H       
  42 H42            0.3059     1.3985    -2.0935 H       
  43 S43           12.2524     9.3696    11.4659 S.o2    
  44 O44           12.2717     7.9487    11.4580 O.2     
  45 O45           13.4313    10.1629    11.4589 O.2     
  46 N46           11.3694     9.8326    10.1436 N.am    
  47 C47           11.1330    11.2545     9.8820 C.3     
  48 C48           12.1760    11.7761     8.9131 C.2     
  49 C49           12.0347    11.3528     7.4810 C.2     
  50 C50           10.6331    11.3684     6.9029 C.3     
  51 C51            9.6901    10.7017     7.9096 C.3     
  52 C52            9.7511    11.4399     9.2470 C.3     
  53 O53           11.4642     9.7819    12.7009 O.3     
  54 O54           13.0751    12.4965     9.2759 O.2     
  55 O55           12.9893    11.0168     6.8216 O.2     
  56 H56           11.0087     9.1623     9.5424 H       
  57 H57           11.1868    11.8138    10.8160 H       
  58 H58           10.3183    12.3976     6.7304 H       
  59 H59           10.6171    10.8164     5.9632 H       
  60 H60            8.6704    10.7319     7.5255 H       
  61 H61            9.9904     9.6640     8.0548 H       
  62 H62            8.9887    11.0409     9.9160 H       
  63 H63            9.5674    12.5018     9.0832 H       
  64 H64           11.8955     9.5558    13.5363 H       
@<TRIPOS>BOND
   1    1    2 1
   2    1   14 1
   3    1   16 1
   4    2    3 1
   5    2   17 1
   6    2   18 1
   7    3    4 1
   8    3   19 1
   9    3   20 1
  10    4    5 1
  11    4   15 1
  12    5    6 1
  13    5   21 1
  14    5   22 1
  15    6    7 1
  16    6   23 1
  17    6   24 1
  18    7    8 1
  19    7   25 1
  20    7   26 1
  21    8    9 1
  22    8   27 1
  23    9   10 1
  24    9   28 1
  25    9   29 1
  26   10   11 1
  27   10   30 1
  28   10   31 1
  29   11   12 1
  30   11   32 1
  31   12   13 1
  32   12   33 1
  33   12   34 1
  34   13   14 1
  35   13   35 1
  36   13   36 1
  37   14   37 1
  38   14   38 1
  39   15   16 1
  40   15   39 1
  41   15   40 1
  42   16   41 1
  43   16   42 1
  44   43   44 2
  45   43   45 2
  46   43   46 am
  47   43   53 1
  48   46   47 1
  49   46   56 1
  50   47   48 1
  51   47   52 1
  52   47   57 1
  53   48   49 1
  54   48   54 2
  55   49   50 1
  56   49   55 2
  57   50   51 1
  58   50   58 1
  59   50   59 1
  60   51   52 1
  61   51   60 1
  62   51   61 1
  63   52   62 1
  64   52   63 1
  65   53   64 1

#	End of record

