#	Name: ASD01208414
#	Creating user name:	WinNT
#	Creation time:	15. 06. 2019 19:09

#	Modifying user name:	WinNT
#	Modification time:	15. 06. 2019 19:09

#	Program:	/corina/corina34_cracker 3.40 0067  02.08.2006

@<TRIPOS>MOLECULE
ASD01208414
  30   31    0    0    0
SMALL
NO_CHARGES


@<TRIPOS>ATOM
   1 C1             3.8732     5.6727     0.6329 C.ar    
   2 C2             3.7021     6.1832    -0.6462 C.ar    
   3 C3             3.4819     5.3274    -1.7094 C.ar    
   4 C4             3.4321     3.9613    -1.5010 C.ar    
   5 C5             3.6026     3.4467    -0.2237 C.ar    
   6 C6             3.8236     4.3036     0.8442 C.ar    
   7 O7             4.0947     6.5141     1.6768 O.3     
   8 O8             3.5527     2.1043    -0.0192 O.3     
   9 C9             4.7073     1.3976    -0.1377 C.ar    
  10 C10            5.9082     2.0590    -0.3514 C.ar    
  11 C11            7.0805     1.3382    -0.4711 C.ar    
  12 C12            7.0580    -0.0412    -0.3780 C.ar    
  13 C13            5.8626    -0.7028    -0.1651 C.ar    
  14 C14            4.6882     0.0136    -0.0395 C.ar    
  15 S15            8.5551    -0.9576    -0.5317 S.o2    
  16 O16            8.1390    -2.2323    -1.0020 O.2     
  17 O17            9.3963    -0.1252    -1.3184 O.2     
  18 C18            9.1869    -1.0800     1.1643 C.3     
  19 Br19           3.2479     6.0260    -3.4509 Br      
  20 H20            3.7406     7.2498    -0.8111 H       
  21 H21            3.2600     3.2944    -2.3329 H       
  22 H22            3.9569     3.9048     1.8389 H       
  23 H23            3.2883     6.8143     2.1180 H       
  24 H24            5.9263     3.1364    -0.4245 H       
  25 H25            8.0154     1.8525    -0.6378 H       
  26 H26            5.8477    -1.7802    -0.0928 H       
  27 H27            3.7554    -0.5033     0.1312 H       
  28 H28            8.4565    -1.5955     1.7878 H       
  29 H29           10.1229    -1.6386     1.1639 H       
  30 H30            9.3610    -0.0795     1.5602 H       
@<TRIPOS>BOND
   1    1    2 ar
   2    1    6 ar
   3    1    7 1
   4    2    3 ar
   5    2   20 1
   6    3    4 ar
   7    3   19 1
   8    4    5 ar
   9    4   21 1
  10    5    6 ar
  11    5    8 1
  12    6   22 1
  13    7   23 1
  14    8    9 1
  15    9   10 ar
  16    9   14 ar
  17   10   11 ar
  18   10   24 1
  19   11   12 ar
  20   11   25 1
  21   12   13 ar
  22   12   15 1
  23   13   14 ar
  24   13   26 1
  25   14   27 1
  26   15   16 2
  27   15   17 2
  28   15   18 1
  29   18   28 1
  30   18   29 1
  31   18   30 1

#	End of record

