#	Name: ASD08830017
#	Creating user name:	WinNT
#	Creation time:	15. 06. 2019 21:19

#	Modifying user name:	WinNT
#	Modification time:	15. 06. 2019 21:19

#	Program:	/corina/corina34_cracker 3.40 0067  02.08.2006

@<TRIPOS>MOLECULE
ASD08830017
  41   42    0    0    0
SMALL
NO_CHARGES


@<TRIPOS>ATOM
   1 C1            -0.0168     1.3906     0.0097 C.ar    
   2 C2             0.0021    -0.0041     0.0020 C.ar    
   3 C3             1.1742     2.1056     0.0022 C.ar    
   4 C4             2.3800     1.4414    -0.0130 C.ar    
   5 C5             2.4075     0.0415    -0.0208 C.ar    
   6 C6             1.2064    -0.6783    -0.0131 C.ar    
   7 C7             3.6923    -0.6697    -0.0374 C.2     
   8 C8             4.9836     0.1072    -0.0461 C.3     
   9 C9             6.1642    -0.8660    -0.0631 C.3     
  10 N10            7.4229    -0.1087    -0.0715 N.3     
  11 C11            8.5734    -0.9965     0.1506 C.3     
  12 O12            3.7141    -1.8825    -0.0442 O.2     
  13 O13            9.8076     0.8835     1.0315 O.3     
  14 C14            8.6994     1.7679     0.8443 C.3     
  15 C15            7.3960     0.9691     0.9280 C.3     
  16 O16           -1.2027     2.0513     0.0189 O.3     
  17 O17           -1.1665    -0.6998     0.0099 O.3     
  18 C18           -1.0726    -2.1257     0.0014 C.3     
  19 C19           -1.1497     3.4793     0.0264 C.3     
  20 C20            9.8650    -0.1780     0.0747 C.3     
  21 H21            1.1542     3.1854     0.0078 H       
  22 H22            3.3044     1.9999    -0.0192 H       
  23 H23            1.2223    -1.7582    -0.0188 H       
  24 H24            5.0212     0.7395    -0.9331 H       
  25 H25            5.0390     0.7299     0.8468 H       
  26 H26            6.1265    -1.4983     0.8239 H       
  27 H27            6.1088    -1.4887    -0.9559 H       
  28 H28            8.4923    -1.4581     1.1347 H       
  29 H29            8.5882    -1.7717    -0.6156 H       
  30 H30            8.7084     2.5322     1.6215 H       
  31 H31            8.7734     2.2422    -0.1343 H       
  32 H32            6.5514     1.6288     0.7292 H       
  33 H33            7.2961     0.5389     1.9245 H       
  34 H34           -0.5449    -2.4497    -0.8957 H       
  35 H35           -0.5271    -2.4592     0.8842 H       
  36 H36           -2.0741    -2.5558     0.0090 H       
  37 H37           -0.6185     3.8185     0.9157 H       
  38 H38           -0.6270     3.8282    -0.8642 H       
  39 H39           -2.1632     3.8804     0.0334 H       
  40 H40           10.7169    -0.8211     0.2953 H       
  41 H41            9.9729     0.2397    -0.9263 H       
@<TRIPOS>BOND
   1    1    2 ar
   2    1    3 ar
   3    1   16 1
   4    2   17 1
   5    2    6 ar
   6    3    4 ar
   7    3   21 1
   8    4    5 ar
   9    4   22 1
  10    5    6 ar
  11    5    7 1
  12    6   23 1
  13    7    8 1
  14    7   12 2
  15    8    9 1
  16    8   24 1
  17    8   25 1
  18    9   10 1
  19    9   26 1
  20    9   27 1
  21   10   11 1
  22   10   15 1
  23   11   20 1
  24   11   28 1
  25   11   29 1
  26   13   14 1
  27   13   20 1
  28   14   15 1
  29   14   30 1
  30   14   31 1
  31   15   32 1
  32   15   33 1
  33   16   19 1
  34   17   18 1
  35   18   34 1
  36   18   35 1
  37   18   36 1
  38   19   37 1
  39   19   38 1
  40   19   39 1
  41   20   40 1
  42   20   41 1

#	End of record

