#	Name: ASD01151023
#	Creating user name:	WinNT
#	Creation time:	15. 06. 2019 19:05

#	Modifying user name:	WinNT
#	Modification time:	15. 06. 2019 19:05

#	Program:	/corina/corina34_cracker 3.40 0067  02.08.2006

@<TRIPOS>MOLECULE
ASD01151023
  59   60    0    0    0
SMALL
NO_CHARGES


@<TRIPOS>ATOM
   1 C1            -0.0167     1.3833     0.0096 C.2     
   2 C2             0.0021    -0.0041     0.0020 C.2     
   3 N3            -1.2692    -0.4210     0.0127 N.2     
   4 C4            -2.0744     0.6090     0.0264 C.2     
   5 N5            -1.3561     1.7457     0.0305 N.pl3   
   6 C6            -3.5794     0.5336     0.0414 C.3     
   7 C7            -1.8878     3.1107     0.0457 C.3     
   8 C8             1.1016     2.2515     0.0036 C.2     
   9 O9             0.9180     3.5886     0.0131 O.3     
  10 O10            2.2285     1.7921    -0.0100 O.2     
  11 C11            2.0911     4.4045     0.0062 C.3     
  12 C12            2.9093     4.1108    -1.2528 C.3     
  13 N13            1.1335    -0.8121    -0.0145 N.am    
  14 C14           -4.0741     0.5010     1.4888 C.3     
  15 C15            1.0035    -2.1536    -0.0203 C.2     
  16 C16            2.2057    -3.0122    -0.0379 C.ar    
  17 O17           -0.1029    -2.6571    -0.0111 O.2     
  18 C18           -2.0622     3.5739     1.4934 C.3     
  19 C19           -0.6920     3.6657     2.1681 C.3     
  20 C20           -2.7327     4.9490     1.5116 C.3     
  21 C21            1.6862     5.8799     0.0186 C.3     
  22 C22            2.9339     4.0965     1.2455 C.3     
  23 C23           -5.6021     0.4244     1.5040 C.3     
  24 C24            2.0743    -4.4023    -0.0439 C.ar    
  25 C25            3.2000    -5.1984    -0.0608 C.ar    
  26 C26            4.4594    -4.6217    -0.0718 C.ar    
  27 C27            4.5962    -3.2434    -0.0655 C.ar    
  28 C28            3.4779    -2.4368    -0.0544 C.ar    
  29 Cl29           5.8720    -5.6306    -0.0931 Cl      
  30 H30           -3.9920     1.4068    -0.4640 H       
  31 H31           -3.9030    -0.3709    -0.4737 H       
  32 H32           -1.1942     3.7765    -0.4678 H       
  33 H33           -2.8528     3.1304    -0.4608 H       
  34 H34            2.3090     4.3302    -2.1357 H       
  35 H35            3.8042     4.7332    -1.2580 H       
  36 H36            3.1978     3.0597    -1.2616 H       
  37 H37            2.0164    -0.4104    -0.0219 H       
  38 H38           -3.6615    -0.3723     1.9942 H       
  39 H39           -3.7505     1.4055     2.0039 H       
  40 H40           -2.6848     2.8589     2.0312 H       
  41 H41           -0.2143     2.6861     2.1551 H       
  42 H42           -0.0694     4.3807     1.6303 H       
  43 H43           -0.8162     3.9958     3.1995 H       
  44 H44           -3.7089     4.8836     1.0310 H       
  45 H45           -2.8570     5.2791     2.5430 H       
  46 H46           -2.1101     5.6640     0.9738 H       
  47 H47            1.1033     6.0892     0.9156 H       
  48 H48            2.5810     6.5023     0.0134 H       
  49 H49            1.0859     6.0994    -0.8643 H       
  50 H50            3.2223     3.0454     1.2367 H       
  51 H51            3.8287     4.7189     1.2403 H       
  52 H52            2.3509     4.3058     2.1425 H       
  53 H53           -6.0147     1.2977     0.9986 H       
  54 H54           -5.9257    -0.4801     0.9890 H       
  55 H55           -5.9545     0.4012     2.5352 H       
  56 H56            1.0929    -4.8531    -0.0350 H       
  57 H57            3.0996    -6.2737    -0.0651 H       
  58 H58            5.5808    -2.7995    -0.0734 H       
  59 H59            3.5858    -1.3622    -0.0495 H       
@<TRIPOS>BOND
   1    1    2 2
   2    1    8 1
   3    1    5 1
   4    2    3 1
   5    2   13 1
   6    3    4 2
   7    4    5 1
   8    4    6 1
   9    5    7 1
  10    6   14 1
  11    6   30 1
  12    6   31 1
  13    7   18 1
  14    7   32 1
  15    7   33 1
  16    8    9 1
  17    8   10 2
  18    9   11 1
  19   11   12 1
  20   11   21 1
  21   11   22 1
  22   12   34 1
  23   12   35 1
  24   12   36 1
  25   13   15 am
  26   13   37 1
  27   14   23 1
  28   14   38 1
  29   14   39 1
  30   15   16 1
  31   15   17 2
  32   16   24 ar
  33   16   28 ar
  34   18   19 1
  35   18   20 1
  36   18   40 1
  37   19   41 1
  38   19   42 1
  39   19   43 1
  40   20   44 1
  41   20   45 1
  42   20   46 1
  43   21   47 1
  44   21   48 1
  45   21   49 1
  46   22   50 1
  47   22   51 1
  48   22   52 1
  49   23   53 1
  50   23   54 1
  51   23   55 1
  52   24   25 ar
  53   24   56 1
  54   25   26 ar
  55   25   57 1
  56   26   27 ar
  57   26   29 1
  58   27   28 ar
  59   27   58 1
  60   28   59 1

#	End of record

