#	Name: ASD03091581
#	Creating user name:	WinNT
#	Creation time:	15. 06. 2019 20:31

#	Modifying user name:	WinNT
#	Modification time:	15. 06. 2019 20:31

#	Program:	/corina/corina34_cracker 3.40 0067  02.08.2006

@<TRIPOS>MOLECULE
ASD03091581
  40   42    0    0    0
SMALL
NO_CHARGES


@<TRIPOS>ATOM
   1 C1            -0.0166     1.3711     0.0096 C.2     
   2 C2             0.0018    -0.0033     0.0566 C.2     
   3 N3            -1.1957    -0.5726     0.0529 N.2     
   4 C4            -2.2260     0.2123     0.0065 C.2     
   5 S5            -1.6995     1.8914    -0.0337 S.3     
   6 N6            -3.5434    -0.2070    -0.0046 N.3     
   7 C7            -3.6299    -1.6738     0.0440 C.3     
   8 C8            -4.2535     0.3179    -1.1800 C.3     
   9 C9            -5.7194    -0.1198    -1.1215 C.3     
  10 O10           -5.7829    -1.5464    -1.0431 O.3     
  11 C11           -5.1020    -2.0916     0.0903 C.3     
  12 C12            1.1646     2.2544     0.0030 C.ar    
  13 C13            1.2702     3.3097    -0.9132 C.ar    
  14 C14            2.2105     2.0657     0.9167 C.ar    
  15 C15            3.2955     2.9152     0.8745 C.ar    
  16 N16            3.3566     3.8939    -0.0088 N.ar    
  17 C17            2.3921     4.1102    -0.8835 C.ar    
  18 C18            2.5217     5.2448    -1.8668 C.3     
  19 C19            4.4273     2.7240     1.8510 C.3     
  20 C20           -5.2010    -3.6181     0.0601 C.3     
  21 C21            1.2171    -0.7591     0.1051 C.1     
  22 N22            2.1812    -1.3587     0.1436 N.1     
  23 H23           -3.1595    -2.0958    -0.8441 H       
  24 H24           -3.1197    -2.0391     0.9353 H       
  25 H25           -4.1986     1.4065    -1.1822 H       
  26 H26           -3.7931    -0.0722    -2.0877 H       
  27 H27           -6.1941     0.3145    -0.2416 H       
  28 H28           -6.2365     0.2187    -2.0193 H       
  29 H29           -5.5588    -1.7146     1.0053 H       
  30 H30            0.4849     3.4927    -1.6318 H       
  31 H31            2.1671     1.2674     1.6429 H       
  32 H32            3.0159     4.8879    -2.7704 H       
  33 H33            1.5306     5.6216    -2.1194 H       
  34 H34            3.1123     6.0456    -1.4219 H       
  35 H35            5.1672     2.0484     1.4218 H       
  36 H36            4.8930     3.6870     2.0606 H       
  37 H37            4.0404     2.2983     2.7768 H       
  38 H38           -4.7423    -3.9940    -0.8544 H       
  39 H39           -4.6819    -4.0330     0.9241 H       
  40 H40           -6.2495    -3.9148     0.0892 H       
@<TRIPOS>BOND
   1    1    2 2
   2    1   12 1
   3    1    5 1
   4    2    3 1
   5    2   21 1
   6    3    4 2
   7    4    5 1
   8    4    6 1
   9    6    7 1
  10    6    8 1
  11    7   11 1
  12    7   23 1
  13    7   24 1
  14    8    9 1
  15    8   25 1
  16    8   26 1
  17    9   10 1
  18    9   27 1
  19    9   28 1
  20   10   11 1
  21   11   20 1
  22   11   29 1
  23   12   13 ar
  24   12   14 ar
  25   13   17 ar
  26   13   30 1
  27   14   15 ar
  28   14   31 1
  29   15   16 ar
  30   15   19 1
  31   16   17 ar
  32   17   18 1
  33   18   32 1
  34   18   33 1
  35   18   34 1
  36   19   35 1
  37   19   36 1
  38   19   37 1
  39   20   38 1
  40   20   39 1
  41   20   40 1
  42   21   22 3

#	End of record

