#	Name: ASD03090638
#	Creating user name:	WinNT
#	Creation time:	15. 06. 2019 20:29

#	Modifying user name:	WinNT
#	Modification time:	15. 06. 2019 20:29

#	Program:	/corina/corina34_cracker 3.40 0067  02.08.2006

@<TRIPOS>MOLECULE
ASD03090638
  36   37    0    0    0
SMALL
NO_CHARGES


@<TRIPOS>ATOM
   1 N1            -0.0162     1.3436     0.0094 N.am    
   2 C2             0.0190     0.1476     0.6298 C.2     
   3 O3             1.0723    -0.2858     1.0556 O.2     
   4 N4            -1.1134    -0.5681     0.7782 N.am    
   5 S5            -2.4224    -2.8287     1.6850 S.3     
   6 C6            -1.0771    -1.8022     1.4183 C.2     
   7 N7            -0.0175    -2.3678     1.9127 N.2     
   8 N8            -0.1578    -3.4951     2.4635 N.2     
   9 C9            -1.3564    -3.9852     2.4835 C.2     
  10 C10           -1.7666    -5.3064     3.0812 C.3     
  11 F11           -0.6684    -5.8890     3.7229 F       
  12 F12           -2.7932    -5.0999     4.0088 F       
  13 F13           -2.2189    -6.1568     2.0666 F       
  14 C14            1.1455     2.1271    -0.0705 C.ar    
  15 C15            1.0459     3.5107    -0.1989 C.ar    
  16 C16            2.1940     4.2810    -0.2770 C.ar    
  17 C17            3.4403     3.6740    -0.2273 C.ar    
  18 C18            3.5376     2.2965    -0.0995 C.ar    
  19 C19            2.3934     1.5254    -0.0160 C.ar    
  20 N20            4.8689     1.6515    -0.0467 N.pl3   
  21 O21            4.9555     0.4418     0.0656 O.2     
  22 O22            5.8777     2.3305    -0.1155 O.2     
  23 O23            4.5676     4.4302    -0.3045 O.3     
  24 C24            4.3937     5.8425    -0.4356 C.3     
  25 O25           -0.1767     4.1038    -0.2479 O.3     
  26 C26           -0.2028     5.5264    -0.3803 C.3     
  27 H27           -0.8434     1.6610    -0.3853 H       
  28 H28           -1.9537    -0.2225     0.4385 H       
  29 H29            2.1191     5.3538    -0.3770 H       
  30 H30            2.4715     0.4532     0.0877 H       
  31 H31            3.8345     6.0567    -1.3464 H       
  32 H32            3.8445     6.2225     0.4258 H       
  33 H33            5.3695     6.3256    -0.4864 H       
  34 H34            0.3088     5.9798     0.4686 H       
  35 H35            0.2997     5.8146    -1.3036 H       
  36 H36           -1.2369     5.8699    -0.4070 H       
@<TRIPOS>BOND
   1    1    2 am
   2    1   14 1
   3    1   27 1
   4    2    3 2
   5    2    4 am
   6    4    6 1
   7    4   28 1
   8    5    6 1
   9    5    9 1
  10    6    7 2
  11    7    8 1
  12    8    9 2
  13    9   10 1
  14   10   11 1
  15   10   12 1
  16   10   13 1
  17   14   15 ar
  18   14   19 ar
  19   15   16 ar
  20   15   25 1
  21   16   17 ar
  22   16   29 1
  23   17   18 ar
  24   17   23 1
  25   18   19 ar
  26   18   20 1
  27   19   30 1
  28   20   21 2
  29   20   22 2
  30   23   24 1
  31   24   31 1
  32   24   32 1
  33   24   33 1
  34   25   26 1
  35   26   34 1
  36   26   35 1
  37   26   36 1

#	End of record

