#	Name: ASD03090472
#	Creating user name:	WinNT
#	Creation time:	15. 06. 2019 20:28

#	Modifying user name:	WinNT
#	Modification time:	15. 06. 2019 20:28

#	Program:	/corina/corina34_cracker 3.40 0067  02.08.2006

@<TRIPOS>MOLECULE
ASD03090472
  41   43    0    0    0
SMALL
NO_CHARGES


@<TRIPOS>ATOM
   1 C1            -0.0181     1.5035     0.0018 C.2     
   2 C2             0.0032    -0.0034    -0.0070 C.3     
   3 O3             1.0235     2.1247    -0.0119 O.2     
   4 N4            -1.1946     2.1607     0.0195 N.am    
   5 C5            -1.2153     3.5523     0.1325 C.ar    
   6 C6            -2.4230     4.2436     0.0376 C.ar    
   7 C7            -2.3925     5.6226     0.1566 C.ar    
   8 C8            -1.1572     6.2338     0.3637 C.ar    
   9 N9            -0.0625     5.4967     0.4405 N.ar    
  10 N10           -0.0903     4.2179     0.3354 N.ar    
  11 O11           -1.0782     7.5837     0.4859 O.3     
  12 C12            0.2206     8.1411     0.6966 C.3     
  13 C13            0.1103     9.6630     0.8092 C.3     
  14 C14            1.5009    10.2598     1.0348 C.3     
  15 N15            4.2537    -1.4400    -2.2861 N.pl3   
  16 C16            5.4512    -1.8445    -1.7622 C.2     
  17 C17            5.3941    -1.8245    -0.4211 C.2     
  18 C18            4.0500    -1.3700    -0.0565 C.ar    
  19 C19            3.3964    -1.1484     1.1573 C.ar    
  20 C20            2.1017    -0.7121     1.1607 C.ar    
  21 C21            1.4308    -0.4855    -0.0334 C.ar    
  22 C22            2.0566    -0.6972    -1.2421 C.ar    
  23 C23            3.3745    -1.1423    -1.2692 C.ar    
  24 H24           -0.4906    -0.3790     0.8892 H       
  25 H25           -0.5202    -0.3689    -0.8905 H       
  26 H26           -2.0270     1.6670    -0.0464 H       
  27 H27           -3.3532     3.7194    -0.1241 H       
  28 H28           -3.2983     6.2070     0.0905 H       
  29 H29            0.6439     7.7385     1.6168 H       
  30 H30            0.8666     7.8848    -0.1431 H       
  31 H31           -0.3130    10.0656    -0.1111 H       
  32 H32           -0.5357     9.9194     1.6488 H       
  33 H33            1.9242     9.8572     1.9550 H       
  34 H34            2.1469    10.0035     0.1951 H       
  35 H35            1.4223    11.3440     1.1150 H       
  36 H36            4.0550    -1.3696    -3.2329 H       
  37 H37            6.3144    -2.1370    -2.3416 H       
  38 H38            6.1883    -2.0926     0.2598 H       
  39 H39            3.9120    -1.3226     2.0901 H       
  40 H40            1.5965    -0.5412     2.0998 H       
  41 H41            1.5260    -0.5184    -2.1656 H       
@<TRIPOS>BOND
   1    1    2 1
   2    1    3 2
   3    1    4 am
   4    2   21 1
   5    2   24 1
   6    2   25 1
   7    4    5 1
   8    4   26 1
   9    5    6 ar
  10    5   10 ar
  11    6    7 ar
  12    6   27 1
  13    7    8 ar
  14    7   28 1
  15    8    9 ar
  16    8   11 1
  17    9   10 ar
  18   11   12 1
  19   12   13 1
  20   12   29 1
  21   12   30 1
  22   13   14 1
  23   13   31 1
  24   13   32 1
  25   14   33 1
  26   14   34 1
  27   14   35 1
  28   15   16 1
  29   15   23 1
  30   15   36 1
  31   16   17 2
  32   16   37 1
  33   17   18 1
  34   17   38 1
  35   18   19 ar
  36   18   23 ar
  37   19   20 ar
  38   19   39 1
  39   20   21 ar
  40   20   40 1
  41   21   22 ar
  42   22   23 ar
  43   22   41 1

#	End of record

