#	Name: ASD05763001
#	Creating user name:	WinNT
#	Creation time:	15. 06. 2019 21:03

#	Modifying user name:	WinNT
#	Modification time:	15. 06. 2019 21:03

#	Program:	/corina/corina34_cracker 3.40 0067  02.08.2006

@<TRIPOS>MOLECULE
ASD05763001
 210  212    0    0    0
SMALL
NO_CHARGES


@<TRIPOS>ATOM
   1 C1             1.9349    -4.2903    -1.1427 C.2     
   2 O2             1.5524    -5.4400    -1.1962 O.2     
   3 N3             4.1647    -5.1974    -0.8356 N.am    
   4 C4             3.4105    -3.9853    -1.1648 C.3     
   5 C5             3.8099    -3.4991    -2.5595 C.3     
   6 C6             5.3050    -3.1744    -2.5776 C.3     
   7 O7             3.5330    -4.5222    -3.5180 O.3     
   8 C8            -0.7798    -4.4891    -0.0071 C.2     
   9 O9             0.0687    -5.1476     0.5562 O.2     
  10 N10            1.0400    -3.2852    -1.0690 N.am    
  11 C11           -0.3943    -3.5746    -1.1412 C.3     
  12 C12           -0.7109    -4.2544    -2.4748 C.3     
  13 C13           -0.4365    -3.2798    -3.6218 C.3     
  14 C14           -0.7531    -3.9596    -4.9554 C.3     
  15 N15           -0.4903    -3.0264    -6.0538 N.pl3   
  16 C16           -0.7039    -3.4178    -7.3543 C.2     
  17 N17           -0.4701    -2.5875    -8.3315 N.2     
  18 N18           -1.1641    -4.6849    -7.6241 N.pl3   
  19 C19           -3.8893    -5.8605     1.3396 C.2     
  20 O20           -4.5430    -5.4415     0.4079 O.2     
  21 N21           -2.0676    -4.5753     0.3810 N.am    
  22 C22           -2.4425    -5.4643     1.4835 C.3     
  23 C23           -2.2426    -4.7378     2.8150 C.3     
  24 C24           -0.7546    -4.4459     3.0185 C.3     
  25 C25           -0.5547    -3.7194     4.3501 C.3     
  26 N26            0.8701    -3.4399     4.5449 N.pl3   
  27 C27            1.2942    -2.7894     5.6794 C.2     
  28 N28            0.4286    -2.4213     6.5817 N.2     
  29 N29            2.6314    -2.5272     5.8622 N.pl3   
  30 C30           -6.4209    -7.4311     3.4579 C.2     
  31 O31           -5.6696    -7.6626     4.3814 O.2     
  32 N32           -4.4569    -6.6805     2.2462 N.am    
  33 C33           -5.8634    -7.0656     2.1063 C.3     
  34 C34           -5.9717    -8.2688     1.1675 C.3     
  35 C35           -5.4848    -7.8726    -0.2277 C.3     
  36 C36           -5.1085    -9.4129     1.7031 C.3     
  37 C37           -9.6757    -8.5270     4.7103 C.2     
  38 O38          -10.1598    -8.5453     3.5984 O.2     
  39 N39           -7.7545    -7.5008     3.6403 N.am    
  40 C40           -8.2954    -7.9603     4.9219 C.3     
  41 C41           -8.3715    -6.7823     5.8952 C.3     
  42 O42           -9.3129    -5.8232     5.4095 O.3     
  43 C43          -12.4989    -9.4673     6.8336 C.2     
  44 O44          -11.9879    -8.9853     7.8222 O.2     
  45 N45          -10.3721    -9.0136     5.7566 N.am    
  46 C46          -11.7139    -9.5645     5.5509 C.3     
  47 C47          -11.6039   -11.0314     5.1301 C.3     
  48 C48          -10.9266   -11.1193     3.7868 C.ar    
  49 C49           -9.5511   -11.2352     3.7125 C.ar    
  50 C50           -8.9299   -11.3157     2.4802 C.ar    
  51 C51           -9.6841   -11.2808     1.3223 C.ar    
  52 C52          -11.0596   -11.1658     1.3966 C.ar    
  53 C53          -11.6813   -11.0897     2.6290 C.ar    
  54 C54          -15.6093   -10.8752     8.1397 C.2     
  55 O55          -15.7280   -11.6307     7.1984 O.2     
  56 N56          -13.7688    -9.9160     6.8821 N.am    
  57 C57          -14.5320    -9.8215     8.1290 C.3     
  58 C58          -15.1727    -8.4359     8.2311 C.3     
  59 C59          -18.7362   -11.3014     8.4767 C.2     
  60 O60          -18.6598   -10.1661     8.0568 O.2     
  61 N61          -16.4410   -10.9780     9.1953 N.am    
  62 C62          -17.5519   -11.9325     9.1624 C.3     
  63 C63          -17.9361   -12.3174    10.5924 C.3     
  64 C64          -16.7808   -13.0284    11.2488 C.2     
  65 O65          -15.7939   -13.2986    10.6062 O.2     
  66 O66          -16.8482   -13.3616    12.5474 O.3     
  67 C67          -22.2991   -12.0467     8.1396 C.2     
  68 O68          -22.2459   -12.9425     8.9555 O.2     
  69 N69          -19.8803   -11.9986     8.3300 N.am    
  70 C70          -21.0316   -11.3851     7.6634 C.3     
  71 C71          -20.9000   -11.5650     6.1497 C.3     
  72 O72          -20.9730   -12.9552     5.8271 O.3     
  73 C73          -25.7938   -12.1367     7.0711 C.2     
  74 O74          -25.5511   -11.5507     6.0374 O.2     
  75 N75          -23.4917   -11.6429     7.6588 N.am    
  76 C76          -24.7238   -12.2861     8.1218 C.3     
  77 C77          -25.1882   -11.6236     9.4204 C.3     
  78 C78          -24.1735   -11.8785    10.5051 C.ar    
  79 C79          -23.1301   -10.9925    10.6975 C.ar    
  80 C80          -22.1994   -11.2263    11.6925 C.ar    
  81 C81          -22.3123   -12.3460    12.4953 C.ar    
  82 C82          -23.3563   -13.2316    12.3034 C.ar    
  83 C83          -24.2895   -12.9954    11.3113 C.ar    
  84 C84          -29.3282   -13.1708     6.7351 C.2     
  85 O85          -29.3596   -13.7105     7.8207 O.2     
  86 N86          -27.0205   -12.6544     7.2802 N.am    
  87 C87          -28.0607   -12.5091     6.2589 C.3     
  88 C88          -32.4934   -14.2075     5.2285 C.2     
  89 O89          -32.0977   -13.9790     4.1051 O.2     
  90 N90          -30.4269   -13.1627     5.9545 N.am    
  91 C91          -31.6590   -13.8059     6.4175 C.3     
  92 C92          -32.4495   -12.8268     7.2878 C.3     
  93 C93          -31.6657   -12.5204     8.5380 C.ar    
  94 C94          -30.7790   -11.4600     8.5554 C.ar    
  95 C95          -30.0601   -11.1790     9.7021 C.ar    
  96 C96          -30.2281   -11.9581    10.8316 C.ar    
  97 C97          -31.1154   -13.0179    10.8145 C.ar    
  98 C98          -31.8376   -13.2963     9.6691 C.ar    
  99 C99          -35.3286   -14.0401     3.8138 C.2     
 100 O100         -35.2560   -12.9874     4.4025 O.2     
 101 N101         -33.6792   -14.8206     5.4136 N.am    
 102 C102         -34.4903   -15.2111     4.2578 C.3     
 103 C103         -35.4046   -16.3748     4.6461 C.3     
 104 C104         -34.5671   -17.5844     4.9723 C.2     
 105 O105         -33.3580   -17.5219     4.9012 O.2     
 106 N106         -35.1617   -18.7357     5.3430 N.am    
 107 O107         -36.1560   -14.1665     2.7644 O.3     
 108 O108           5.8879    -4.0076    -0.1027 O.2     
 109 C109           5.4003    -5.0993    -0.3064 C.2     
 110 C110           6.1761    -6.3461     0.0322 C.3     
 111 H111           3.7748    -6.0705    -0.9986 H       
 112 H112           3.6322    -3.2092    -0.4322 H       
 113 H113           3.2406    -2.6038    -2.8090 H       
 114 H114           5.8777    -4.0922    -2.4442 H       
 115 H115           5.5662    -2.7187    -3.5327 H       
 116 H116           5.5360    -2.4811    -1.7689 H       
 117 H117           2.6018    -4.7790    -3.5612 H       
 118 H118           1.3457    -2.3701    -0.9682 H       
 119 H119          -0.9570    -2.6442    -1.0650 H       
 120 H120          -0.0829    -5.1378    -2.5904 H       
 121 H121          -1.7600    -4.5496    -2.4920 H       
 122 H122          -1.0645    -2.3964    -3.5062 H       
 123 H123           0.6126    -2.9845    -3.6046 H       
 124 H124          -0.1251    -4.8429    -5.0711 H       
 125 H125          -1.8022    -4.2548    -4.9727 H       
 126 H126          -0.1656    -2.1324    -5.8634 H       
 127 H127          -0.6208    -2.8636    -9.2491 H       
 128 H128          -1.3381    -5.3027    -6.8969 H       
 129 H129          -1.3148    -4.9610    -8.5417 H       
 130 H130          -2.7463    -4.0487    -0.0695 H       
 131 H131          -1.8172    -6.3568     1.4591 H       
 132 H132          -2.7986    -3.8003     2.8044 H       
 133 H133          -2.6044    -5.3656     3.6293 H       
 134 H134          -0.1986    -5.3834     3.0291 H       
 135 H135          -0.3928    -3.8181     2.2042 H       
 136 H136          -1.1107    -2.7819     4.3395 H       
 137 H137          -0.9165    -4.3472     5.1644 H       
 138 H138           1.5143    -3.7139     3.8734 H       
 139 H139           0.7278    -1.9624     7.3821 H       
 140 H140           3.2755    -2.8011     5.1907 H       
 141 H141           2.9306    -2.0682     6.6626 H       
 142 H142          -3.9340    -7.0156     2.9914 H       
 143 H143          -6.4294    -6.2305     1.6935 H       
 144 H144          -7.0108    -8.5933     1.1112 H       
 145 H145          -4.4146    -7.6685    -0.1947 H       
 146 H146          -5.6780    -8.6877    -0.9251 H       
 147 H147          -6.0150    -6.9791    -0.5574 H       
 148 H148          -5.4554    -9.6952     2.6971 H       
 149 H149          -5.1857   -10.2701     1.0343 H       
 150 H150          -4.0694    -9.0884     1.7594 H       
 151 H151          -8.3560    -7.2467     2.9231 H       
 152 H152          -7.6454    -8.7316     5.3350 H       
 153 H153          -8.6896    -7.1400     6.8744 H       
 154 H154          -7.3895    -6.3169     5.9797 H       
 155 H155          -9.4129    -5.0474     5.9781 H       
 156 H156          -9.9849    -8.9990     6.6458 H       
 157 H157         -12.2227    -8.9996     4.7698 H       
 158 H158         -11.0181   -11.5783     5.8689 H       
 159 H159         -12.6013   -11.4659     5.0633 H       
 160 H160          -8.9619   -11.2624     4.6171 H       
 161 H161          -7.8552   -11.4055     2.4222 H       
 162 H162          -9.1986   -11.3431     0.3596 H       
 163 H163         -11.6489   -11.1383     0.4919 H       
 164 H164         -12.7563   -11.0035     2.6871 H       
 165 H165         -14.1776   -10.3015     6.0913 H       
 166 H166         -13.8640    -9.9763     8.9764 H       
 167 H167         -15.8407    -8.2812     7.3837 H       
 168 H168         -15.7405    -8.3656     9.1589 H       
 169 H169         -14.3935    -7.6738     8.2234 H       
 170 H170         -16.3040   -10.4200     9.9768 H       
 171 H171         -17.2482   -12.8248     8.6150 H       
 172 H172         -18.1779   -11.4178    11.1584 H       
 173 H173         -18.8036   -12.9771    10.5705 H       
 174 H174         -16.0825   -13.8165    12.9242 H       
 175 H175         -19.9414   -12.9065     8.6658 H       
 176 H176         -21.0652   -10.3219     7.9013 H       
 177 H177         -21.7088   -11.0328     5.6489 H       
 178 H178         -19.9418   -11.1649     5.8182 H       
 179 H179         -20.8966   -13.1442     4.8819 H       
 180 H180         -23.5342   -10.9265     7.0063 H       
 181 H181         -24.5359   -13.3447     8.3010 H       
 182 H182         -25.2907   -10.5497     9.2639 H       
 183 H183         -26.1503   -12.0410     9.7174 H       
 184 H184         -23.0418   -10.1177    10.0703 H       
 185 H185         -21.3837   -10.5345    11.8424 H       
 186 H186         -21.5848   -12.5291    13.2721 H       
 187 H187         -23.4444   -14.1065    12.9304 H       
 188 H188         -25.1072   -13.6854    11.1638 H       
 189 H189         -27.2147   -13.1231     8.1070 H       
 190 H190         -27.7299   -12.9811     5.3337 H       
 191 H191         -28.2486   -11.4505     6.0796 H       
 192 H192         -30.4018   -12.7311     5.0862 H       
 193 H193         -31.4092   -14.6915     7.0018 H       
 194 H194         -32.6226   -11.9050     6.7324 H       
 195 H195         -33.4064   -13.2727     7.5591 H       
 196 H196         -30.6478   -10.8513     7.6729 H       
 197 H197         -29.3668   -10.3510     9.7155 H       
 198 H198         -29.6658   -11.7389    11.7273 H       
 199 H199         -31.2464   -13.6268    11.6968 H       
 200 H200         -32.5336   -14.1220     9.6569 H       
 201 H201         -33.9957   -15.0034     6.3122 H       
 202 H202         -33.8361   -15.5195     3.4423 H       
 203 H203         -35.9963   -16.0966     5.5182 H       
 204 H204         -36.0700   -16.6071     3.8146 H       
 205 H205         -36.1288   -18.7857     5.3998 H       
 206 H206         -34.6226   -19.5143     5.5529 H       
 207 H207         -36.6734   -13.3880     2.5170 H       
 208 H208           5.5807    -7.2239    -0.2188 H       
 209 H209           7.1051    -6.3621    -0.5378 H       
 210 H210           6.4037    -6.3541     1.0982 H       
@<TRIPOS>BOND
   1    1    2 2
   2    1    4 1
   3    1   10 am
   4    3  109 am
   5    3    4 1
   6    3  111 1
   7    4    5 1
   8    4  112 1
   9    5    6 1
  10    5    7 1
  11    5  113 1
  12    6  114 1
  13    6  115 1
  14    6  116 1
  15    7  117 1
  16    8    9 2
  17    8   11 1
  18    8   21 am
  19   10   11 1
  20   10  118 1
  21   11   12 1
  22   11  119 1
  23   12   13 1
  24   12  120 1
  25   12  121 1
  26   13   14 1
  27   13  122 1
  28   13  123 1
  29   14   15 1
  30   14  124 1
  31   14  125 1
  32   15   16 1
  33   15  126 1
  34   16   17 2
  35   16   18 1
  36   17  127 1
  37   18  128 1
  38   18  129 1
  39   19   20 2
  40   19   22 1
  41   19   32 am
  42   21   22 1
  43   21  130 1
  44   22   23 1
  45   22  131 1
  46   23   24 1
  47   23  132 1
  48   23  133 1
  49   24   25 1
  50   24  134 1
  51   24  135 1
  52   25   26 1
  53   25  136 1
  54   25  137 1
  55   26   27 1
  56   26  138 1
  57   27   28 2
  58   27   29 1
  59   28  139 1
  60   29  140 1
  61   29  141 1
  62   30   31 2
  63   30   33 1
  64   30   39 am
  65   32   33 1
  66   32  142 1
  67   33   34 1
  68   33  143 1
  69   34   35 1
  70   34   36 1
  71   34  144 1
  72   35  145 1
  73   35  146 1
  74   35  147 1
  75   36  148 1
  76   36  149 1
  77   36  150 1
  78   37   38 2
  79   37   40 1
  80   37   45 am
  81   39   40 1
  82   39  151 1
  83   40   41 1
  84   40  152 1
  85   41   42 1
  86   41  153 1
  87   41  154 1
  88   42  155 1
  89   43   44 2
  90   43   46 1
  91   43   56 am
  92   45   46 1
  93   45  156 1
  94   46   47 1
  95   46  157 1
  96   47   48 1
  97   47  158 1
  98   47  159 1
  99   48   49 ar
 100   48   53 ar
 101   49   50 ar
 102   49  160 1
 103   50   51 ar
 104   50  161 1
 105   51   52 ar
 106   51  162 1
 107   52   53 ar
 108   52  163 1
 109   53  164 1
 110   54   55 2
 111   54   57 1
 112   54   61 am
 113   56   57 1
 114   56  165 1
 115   57   58 1
 116   57  166 1
 117   58  167 1
 118   58  168 1
 119   58  169 1
 120   59   60 2
 121   59   62 1
 122   59   69 am
 123   61   62 1
 124   61  170 1
 125   62   63 1
 126   62  171 1
 127   63   64 1
 128   63  172 1
 129   63  173 1
 130   64   65 2
 131   64   66 1
 132   66  174 1
 133   67   68 2
 134   67   70 1
 135   67   75 am
 136   69   70 1
 137   69  175 1
 138   70   71 1
 139   70  176 1
 140   71   72 1
 141   71  177 1
 142   71  178 1
 143   72  179 1
 144   73   74 2
 145   73   76 1
 146   73   86 am
 147   75   76 1
 148   75  180 1
 149   76   77 1
 150   76  181 1
 151   77   78 1
 152   77  182 1
 153   77  183 1
 154   78   79 ar
 155   78   83 ar
 156   79   80 ar
 157   79  184 1
 158   80   81 ar
 159   80  185 1
 160   81   82 ar
 161   81  186 1
 162   82   83 ar
 163   82  187 1
 164   83  188 1
 165   84   85 2
 166   84   87 1
 167   84   90 am
 168   86   87 1
 169   86  189 1
 170   87  190 1
 171   87  191 1
 172   88   89 2
 173   88   91 1
 174   88  101 am
 175   90   91 1
 176   90  192 1
 177   91   92 1
 178   91  193 1
 179   92   93 1
 180   92  194 1
 181   92  195 1
 182   93   94 ar
 183   93   98 ar
 184   94   95 ar
 185   94  196 1
 186   95   96 ar
 187   95  197 1
 188   96   97 ar
 189   96  198 1
 190   97   98 ar
 191   97  199 1
 192   98  200 1
 193   99  100 2
 194   99  102 1
 195   99  107 1
 196  101  102 1
 197  101  201 1
 198  102  103 1
 199  102  202 1
 200  103  104 1
 201  103  203 1
 202  103  204 1
 203  104  105 2
 204  104  106 am
 205  106  205 1
 206  106  206 1
 207  107  207 1
 208  108  109 2
 209  109  110 1
 210  110  208 1
 211  110  209 1
 212  110  210 1

#	End of record

