#	Name: ASD07301369
#	Creating user name:	WinNT
#	Creation time:	15. 06. 2019 21:11

#	Modifying user name:	WinNT
#	Modification time:	15. 06. 2019 21:11

#	Program:	/corina/corina34_cracker 3.40 0067  02.08.2006

@<TRIPOS>MOLECULE
ASD07301369
  31   31    0    0    0
SMALL
NO_CHARGES


@<TRIPOS>ATOM
   1 C1            -0.0807     1.4072    -1.0565 C.2     
   2 C2            -0.0489    -0.0529    -0.8383 C.ar    
   3 C3             1.1752    -0.7205    -0.7471 C.ar    
   4 C4             1.2019    -2.0819    -0.5432 C.ar    
   5 C5             0.0108    -2.7932    -0.4280 C.ar    
   6 C6            -1.2102    -2.1307    -0.5184 C.ar    
   7 C7            -1.2428    -0.7686    -0.7170 C.ar    
   8 O8             0.9588     2.0297    -1.1569 O.2     
   9 N9            -1.2621     2.0491    -1.1498 N.am    
  10 N10           -1.0622    -4.8296    -0.1154 N.2     
  11 N11            0.0408    -4.1692    -0.2224 N.pl3   
  12 C12           -1.0368    -6.1488    -0.0220 C.2     
  13 C13           -2.2778    -6.8902     0.2110 C.2     
  14 C14           -3.5839    -6.1503     0.3443 C.3     
  15 O15           -2.2546    -8.1005     0.2967 O.2     
  16 C16            0.2322    -6.8677    -0.1515 C.2     
  17 O17            0.5673    -7.3182    -1.2273 O.2     
  18 C18            1.1222    -7.0480     1.0511 C.3     
  19 H19            2.0996    -0.1691    -0.8368 H       
  20 H20            2.1478    -2.5984    -0.4730 H       
  21 H21           -2.1327    -2.6850    -0.4287 H       
  22 H22           -2.1903    -0.2545    -0.7826 H       
  23 H23           -2.0915     1.5519    -1.0737 H       
  24 H24           -1.2830     3.0082    -1.2931 H       
  25 H25            0.8911    -4.6318    -0.1595 H       
  26 H26           -4.0447    -6.0466    -0.6381 H       
  27 H27           -4.2515    -6.7073     1.0018 H       
  28 H28           -3.4003    -5.1620     0.7657 H       
  29 H29            0.9204    -8.0156     1.5107 H       
  30 H30            2.1661    -7.0041     0.7405 H       
  31 H31            0.9240    -6.2549     1.7721 H       
@<TRIPOS>BOND
   1    1    2 1
   2    1    8 2
   3    1    9 am
   4    2    3 ar
   5    2    7 ar
   6    3    4 ar
   7    3   19 1
   8    4    5 ar
   9    4   20 1
  10    5    6 ar
  11    5   11 1
  12    6    7 ar
  13    6   21 1
  14    7   22 1
  15    9   23 1
  16    9   24 1
  17   10   11 1
  18   10   12 2
  19   11   25 1
  20   12   13 1
  21   12   16 1
  22   13   14 1
  23   13   15 2
  24   14   26 1
  25   14   27 1
  26   14   28 1
  27   16   17 2
  28   16   18 1
  29   18   29 1
  30   18   30 1
  31   18   31 1

#	End of record

