#	Name: ASD01410442
#	Creating user name:	WinNT
#	Creation time:	15. 06. 2019 19:17

#	Modifying user name:	WinNT
#	Modification time:	15. 06. 2019 19:17

#	Program:	/corina/corina34_cracker 3.40 0067  02.08.2006

@<TRIPOS>MOLECULE
ASD01410442
  55   60    0    0    0
SMALL
NO_CHARGES


@<TRIPOS>ATOM
   1 C1             5.2378    -0.0758    -2.8997 C.ar    
   2 C2             5.1501     0.7057    -4.0503 C.ar    
   3 C3             4.9408     2.0794    -3.9422 C.ar    
   4 C4             4.8211     2.6615    -2.6978 C.ar    
   5 C5             4.9093     1.8805    -1.5531 C.ar    
   6 C6             5.1173     0.5116    -1.6578 C.ar    
   7 O7             4.7918     2.4567    -0.3284 O.3     
   8 C8             4.5474     3.7927    -0.2725 C.ar    
   9 C9             3.2516     4.2678    -0.4560 C.ar    
  10 C10            2.9846     5.6193    -0.4033 C.ar    
  11 C11            4.0164     6.5166    -0.1645 C.ar    
  12 C12            5.3270     6.0396     0.0219 C.ar    
  13 C13            5.5863     4.6726    -0.0279 C.ar    
  14 N14            3.7992     7.8799    -0.1030 N.pl3   
  15 C15            4.8194     8.7234     0.1295 C.2     
  16 N16            6.0503     8.3305     0.3082 N.2     
  17 C17            6.3910     7.0284     0.2723 C.2     
  18 O18            7.5461     6.6776     0.4413 O.2     
  19 C19            2.4467     8.4099    -0.2932 C.3     
  20 C20            1.7904     8.6054     1.0492 C.ar    
  21 C21            2.0331     9.7577     1.7771 C.ar    
  22 C22            1.4303     9.9373     3.0103 C.ar    
  23 C23            0.5844     8.9648     3.5154 C.ar    
  24 C24            0.3411     7.8129     2.7872 C.ar    
  25 C25            0.9405     7.6353     1.5520 C.ar    
  26 F26            0.7030     6.5112     0.8413 F       
  27 F27           -0.0032     9.1397     4.7193 F       
  28 F28            2.8586    10.7068     1.2841 F       
  29 C29            5.2799     0.0766    -5.3878 C.ar    
  30 C30            5.4904    -1.3024    -5.4935 C.ar    
  31 C31            5.6123    -1.8969    -6.7160 C.ar    
  32 C32            5.5282    -1.1339    -7.8774 C.ar    
  33 C33            5.3162     0.2542    -7.7837 C.ar    
  34 C34            5.1865     0.8563    -6.5321 C.ar    
  35 N35            5.6105    -1.4415    -9.2174 N.pl3   
  36 C36            5.4591    -0.3063    -9.9661 C.2     
  37 C37            5.2778     0.7524    -9.1611 C.2     
  38 H38            5.3955    -1.1412    -2.9806 H       
  39 H39            4.8728     2.6875    -4.8322 H       
  40 H40            4.6589     3.7259    -2.6134 H       
  41 H41            5.1855    -0.0934    -0.7658 H       
  42 H42            2.4478     3.5708    -0.6419 H       
  43 H43            1.9764     5.9786    -0.5476 H       
  44 H44            6.5910     4.3030     0.1147 H       
  45 H45            4.6092     9.7819     0.1703 H       
  46 H46            2.5010     9.3660    -0.8138 H       
  47 H47            1.8608     7.7067    -0.8851 H       
  48 H48            1.6201    10.8360     3.5784 H       
  49 H49           -0.3185     7.0540     3.1814 H       
  50 H50            5.5574    -1.9028    -4.5983 H       
  51 H51            5.7750    -2.9625    -6.7826 H       
  52 H52            5.0233     1.9211    -6.4541 H       
  53 H53            5.7548    -2.3307    -9.5770 H       
  54 H54            5.4825    -0.2677   -11.0451 H       
  55 H55            5.1311     1.7768    -9.4700 H       
@<TRIPOS>BOND
   1    1    2 ar
   2    1    6 ar
   3    1   38 1
   4    2    3 ar
   5    2   29 1
   6    3    4 ar
   7    3   39 1
   8    4    5 ar
   9    4   40 1
  10    5    6 ar
  11    5    7 1
  12    6   41 1
  13    7    8 1
  14    8    9 ar
  15    8   13 ar
  16    9   10 ar
  17    9   42 1
  18   10   11 ar
  19   10   43 1
  20   11   12 ar
  21   11   14 1
  22   12   13 ar
  23   12   17 1
  24   13   44 1
  25   14   15 1
  26   14   19 1
  27   15   16 2
  28   15   45 1
  29   16   17 1
  30   17   18 2
  31   19   20 1
  32   19   46 1
  33   19   47 1
  34   20   21 ar
  35   20   25 ar
  36   21   22 ar
  37   21   28 1
  38   22   23 ar
  39   22   48 1
  40   23   24 ar
  41   23   27 1
  42   24   25 ar
  43   24   49 1
  44   25   26 1
  45   29   30 ar
  46   29   34 ar
  47   30   31 ar
  48   30   50 1
  49   31   32 ar
  50   31   51 1
  51   32   33 ar
  52   32   35 1
  53   33   34 ar
  54   33   37 1
  55   34   52 1
  56   35   36 1
  57   35   53 1
  58   36   37 2
  59   36   54 1
  60   37   55 1

#	End of record

