#	Name: ASD05473017
#	Creating user name:	WinNT
#	Creation time:	15. 06. 2019 21:00

#	Modifying user name:	WinNT
#	Modification time:	15. 06. 2019 21:00

#	Program:	/corina/corina34_cracker 3.40 0067  02.08.2006

@<TRIPOS>MOLECULE
ASD05473017
  37   39    0    0    0
SMALL
NO_CHARGES


@<TRIPOS>ATOM
   1 C1            -0.8732    -0.2146    -1.0691 C.2     
   2 C2            -0.0741     0.1304     0.1611 C.3     
   3 C3             1.2848    -0.5701     0.0996 C.3     
   4 C4             2.1534    -0.1015     1.2687 C.3     
   5 O5            -0.3671    -0.8588    -1.9572 O.2     
   6 O6            -2.1489     0.1891    -1.1758 O.3     
   7 C7             2.4657     1.3639     1.1068 C.2     
   8 N8             2.1992     2.3242     2.0327 N.pl3   
   9 C9             2.6329     3.5278     1.5126 C.ar    
  10 C10            3.1638     3.2333     0.2453 C.ar    
  11 N11            3.0344     1.8939     0.0635 N.2     
  12 C12            3.6893     4.2648    -0.5370 C.ar    
  13 C13            3.6817     5.5562    -0.0599 C.ar    
  14 C14            3.1561     5.8417     1.1927 C.ar    
  15 C15            2.6335     4.8356     1.9770 C.ar    
  16 C16            1.0857    -2.0613     0.1878 C.ar    
  17 C17            1.5132    -2.8776    -0.8430 C.ar    
  18 C18            1.3308    -4.2452    -0.7636 C.ar    
  19 C19            0.7205    -4.7983     0.3480 C.ar    
  20 C20            0.2928    -3.9810     1.3803 C.ar    
  21 C21            0.4809    -2.6126     1.3015 C.ar    
  22 Cl22           0.4906    -6.5161     0.4480 Cl      
  23 I23            4.4704     7.1024    -1.2331 I       
  24 Cl24          -0.4732    -4.6734     2.7759 Cl      
  25 H25            0.0750     1.2092     0.2069 H       
  26 H26           -0.6132    -0.1999     1.0490 H       
  27 H27            1.7780    -0.3244    -0.8408 H       
  28 H28            1.6175    -0.2576     2.2049 H       
  29 H29            3.0824    -0.6716     1.2824 H       
  30 H30           -2.6209    -0.0562    -1.9833 H       
  31 H31            1.7820     2.1887     2.8978 H       
  32 H32            4.1002     4.0498    -1.5124 H       
  33 H33            3.1563     6.8590     1.5552 H       
  34 H34            2.2257     5.0645     2.9505 H       
  35 H35            1.9897    -2.4461    -1.7109 H       
  36 H36            1.6644    -4.8822    -1.5695 H       
  37 H37            0.1512    -1.9748     2.1083 H       
@<TRIPOS>BOND
   1    1    2 1
   2    1    5 2
   3    1    6 1
   4    2    3 1
   5    2   25 1
   6    2   26 1
   7    3    4 1
   8    3   16 1
   9    3   27 1
  10    4    7 1
  11    4   28 1
  12    4   29 1
  13    6   30 1
  14    7    8 1
  15    7   11 2
  16    8    9 1
  17    8   31 1
  18    9   10 ar
  19    9   15 ar
  20   10   11 1
  21   10   12 ar
  22   12   13 ar
  23   12   32 1
  24   13   14 ar
  25   13   23 1
  26   14   15 ar
  27   14   33 1
  28   15   34 1
  29   16   17 ar
  30   16   21 ar
  31   17   18 ar
  32   17   35 1
  33   18   19 ar
  34   18   36 1
  35   19   20 ar
  36   19   22 1
  37   20   21 ar
  38   20   24 1
  39   21   37 1

#	End of record

