#	Name: ASD01810729
#	Creating user name:	WinNT
#	Creation time:	15. 06. 2019 19:25

#	Modifying user name:	WinNT
#	Modification time:	15. 06. 2019 19:25

#	Program:	/corina/corina34_cracker 3.40 0067  02.08.2006

@<TRIPOS>MOLECULE
ASD01810729
  64   68    0    0    0
SMALL
NO_CHARGES


@<TRIPOS>ATOM
   1 C1            -2.2640     1.4003    -0.4437 C.2     
   2 C2            -2.2241    -0.0538    -0.6879 C.ar    
   3 C3            -3.4067    -0.8099    -0.6788 C.ar    
   4 C4            -3.3227    -2.1560    -0.9101 C.ar    
   5 C5            -2.0758    -2.7329    -1.1463 C.ar    
   6 N6            -0.9735    -1.9958    -1.1495 N.ar    
   7 C7            -1.0106    -0.6968    -0.9371 C.ar    
   8 O8            -3.3265     1.9525    -0.2325 O.2     
   9 N9            -1.1220     2.1161    -0.4492 N.am    
  10 N10           -1.9870    -4.0947    -1.3803 N.3     
  11 C11           -0.5879    -4.5019    -1.6057 C.3     
  12 C12           -0.2561    -5.5928    -0.5659 C.3     
  13 C13           -1.6537    -6.1455    -0.1810 C.3     
  14 C14           -2.5231    -4.8647    -0.2377 C.3     
  15 C15           -1.1683     3.5029    -0.3220 C.ar    
  16 C16            0.0159     4.2234    -0.2145 C.ar    
  17 C17           -0.0476     5.6116    -0.0877 C.ar    
  18 C18           -1.3091     6.2183    -0.0746 C.ar    
  19 C19           -2.4358     5.4294    -0.1865 C.ar    
  20 N20           -2.3384     4.1199    -0.3103 N.ar    
  21 C21            1.1872     6.4218     0.0304 C.2     
  22 O22            1.3105     7.4400    -0.6213 O.2     
  23 N23            2.1738     6.0296     0.8606 N.am    
  24 C24            2.0797     4.7551     1.5855 C.3     
  25 C25            2.2831     5.0218     3.0803 C.3     
  26 C26            3.6044     5.7660     3.2864 C.3     
  27 C27            3.5531     7.1111     2.5583 C.3     
  28 C28            3.3667     6.8654     1.0533 C.3     
  29 C29            3.8244     6.0001     4.7587 C.ar    
  30 C30            4.9440     5.4755     5.3797 C.ar    
  31 C31            5.1516     5.6859     6.7271 C.ar    
  32 C32            4.2289     6.4307     7.4644 C.ar    
  33 C33            3.1014     6.9576     6.8312 C.ar    
  34 C34            2.9087     6.7435     5.4821 C.ar    
  35 C35            4.4377     6.6528     8.8635 C.1     
  36 N36            4.6033     6.8290     9.9735 N.1     
  37 H37           -4.3612    -0.3400    -0.4930 H       
  38 H38           -4.2140    -2.7659    -0.9095 H       
  39 H39           -0.0944    -0.1251    -0.9515 H       
  40 H40           -0.2678     1.6658    -0.5417 H       
  41 H41           -0.4763    -4.9035    -2.6129 H       
  42 H42            0.0738    -3.6465    -1.4698 H       
  43 H43            0.3586    -6.3752    -1.0109 H       
  44 H44            0.2395    -5.1592     0.3028 H       
  45 H45           -1.9959    -6.8822    -0.9078 H       
  46 H46           -1.6438    -6.5665     0.8244 H       
  47 H47           -2.4200    -4.2948     0.6857 H       
  48 H48           -3.5679    -5.1226    -0.4108 H       
  49 H49            0.9696     3.7168    -0.2285 H       
  50 H50           -1.3994     7.2901     0.0222 H       
  51 H51           -3.4118     5.8916    -0.1767 H       
  52 H52            1.0960     4.3143     1.4235 H       
  53 H53            2.8512     4.0733     1.2277 H       
  54 H54            1.4605     5.6299     3.4566 H       
  55 H55            2.3115     4.0743     3.6183 H       
  56 H56            4.4239     5.1682     2.8875 H       
  57 H57            2.7186     7.6996     2.9395 H       
  58 H58            4.4855     7.6507     2.7248 H       
  59 H59            4.2410     6.3523     0.6529 H       
  60 H60            3.2324     7.8176     0.5401 H       
  61 H61            5.6569     4.8996     4.8082 H       
  62 H62            6.0256     5.2753     7.2107 H       
  63 H63            2.3838     7.5346     7.3956 H       
  64 H64            2.0392     7.1539     4.9903 H       
@<TRIPOS>BOND
   1    1    2 1
   2    1    8 2
   3    1    9 am
   4    2    3 ar
   5    2    7 ar
   6    3    4 ar
   7    3   37 1
   8    4    5 ar
   9    4   38 1
  10    5    6 ar
  11    5   10 1
  12    6    7 ar
  13    7   39 1
  14    9   15 1
  15    9   40 1
  16   10   11 1
  17   10   14 1
  18   11   12 1
  19   11   41 1
  20   11   42 1
  21   12   13 1
  22   12   43 1
  23   12   44 1
  24   13   14 1
  25   13   45 1
  26   13   46 1
  27   14   47 1
  28   14   48 1
  29   15   16 ar
  30   15   20 ar
  31   16   17 ar
  32   16   49 1
  33   17   18 ar
  34   17   21 1
  35   18   19 ar
  36   18   50 1
  37   19   20 ar
  38   19   51 1
  39   21   22 2
  40   21   23 am
  41   23   24 1
  42   23   28 1
  43   24   25 1
  44   24   52 1
  45   24   53 1
  46   25   26 1
  47   25   54 1
  48   25   55 1
  49   26   27 1
  50   26   29 1
  51   26   56 1
  52   27   28 1
  53   27   57 1
  54   27   58 1
  55   28   59 1
  56   28   60 1
  57   29   30 ar
  58   29   34 ar
  59   30   31 ar
  60   30   61 1
  61   31   32 ar
  62   31   62 1
  63   32   33 ar
  64   32   35 1
  65   33   34 ar
  66   33   63 1
  67   34   64 1
  68   35   36 3

#	End of record

