#	Name: ASD02039317
#	Creating user name:	WinNT
#	Creation time:	15. 06. 2019 20:18

#	Modifying user name:	WinNT
#	Modification time:	15. 06. 2019 20:18

#	Program:	/corina/corina34_cracker 3.40 0067  02.08.2006

@<TRIPOS>MOLECULE
ASD02039317
  47   49    0    0    0
SMALL
NO_CHARGES


@<TRIPOS>ATOM
   1 C1             0.1356     1.1847    -0.3170 C.ar    
   2 C2             0.5172    -0.0933     0.0492 C.ar    
   3 C3            -0.3871    -1.1374    -0.0190 C.ar    
   4 C4            -1.6789    -0.9082    -0.4548 C.ar    
   5 C5            -2.0683     0.3798    -0.8253 C.ar    
   6 C6            -1.1533     1.4273    -0.7479 C.ar    
   7 C7            -3.4530     0.6335    -1.2940 C.ar    
   8 C8             1.1276     2.3165    -0.2396 C.3     
   9 N9             1.9438     2.3345    -1.4560 N.am    
  10 C10            1.4505     3.0089    -2.6593 C.3     
  11 C11            3.1487     1.7307    -1.4680 C.2     
  12 C12            3.6001     0.9639    -0.2938 C.2     
  13 C13            4.7329     0.2083    -0.2110 C.2     
  14 C14            2.4335     4.1080    -3.0673 C.3     
  15 N15            2.9677     0.8854     0.9049 N.2     
  16 C16            3.6603     0.1188     1.6968 C.2     
  17 N17            4.7633    -0.3190     1.0355 N.pl3   
  18 O18            3.8633     1.8187    -2.4482 O.2     
  19 C19            5.7992    -1.2037     1.5744 C.3     
  20 C20            1.3204     1.9933    -3.7961 C.3     
  21 C21           -4.0226    -0.1642    -2.2901 C.ar    
  22 C22           -4.2081     1.6671    -0.7440 C.ar    
  23 N23           -5.4381     1.8934    -1.1582 N.ar    
  24 C24           -6.0015     1.1616    -2.0996 C.ar    
  25 C25           -5.3188     0.1133    -2.6924 C.ar    
  26 F26           -2.5620    -1.9284    -0.5222 F       
  27 Cl27          -6.0763    -0.8389    -3.9306 Cl      
  28 H28            1.5257    -0.2767     0.3894 H       
  29 H29           -0.0836    -2.1333     0.2682 H       
  30 H30           -1.4491     2.4260    -1.0334 H       
  31 H31            0.5934     3.2621    -0.1464 H       
  32 H32            1.7719     2.1761     0.6283 H       
  33 H33            0.4756     3.4513    -2.4540 H       
  34 H34            5.4652     0.0590    -0.9907 H       
  35 H35            3.4242     3.6756    -3.2077 H       
  36 H36            2.1011     4.5651    -3.9993 H       
  37 H37            2.4757     4.8664    -2.2855 H       
  38 H38            3.4015    -0.1269     2.7162 H       
  39 H39            5.5310    -2.2411     1.3745 H       
  40 H40            6.7537    -0.9771     1.0992 H       
  41 H41            5.8837    -1.0511     2.6503 H       
  42 H42            0.5860     1.2352    -3.5238 H       
  43 H43            0.9969     2.5031    -4.7036 H       
  44 H44            2.2856     1.5179    -3.9708 H       
  45 H45           -3.4664    -0.9760    -2.7350 H       
  46 H46           -3.7812     2.2884     0.0294 H       
  47 H47           -7.0124     1.3810    -2.4100 H       
@<TRIPOS>BOND
   1    1    2 ar
   2    1    8 1
   3    1    6 ar
   4    2    3 ar
   5    2   28 1
   6    3    4 ar
   7    3   29 1
   8    4    5 ar
   9    4   26 1
  10    5    6 ar
  11    5    7 1
  12    6   30 1
  13    7   21 ar
  14    7   22 ar
  15    8    9 1
  16    8   31 1
  17    8   32 1
  18    9   10 1
  19    9   11 am
  20   10   20 1
  21   10   14 1
  22   10   33 1
  23   11   12 1
  24   11   18 2
  25   12   13 2
  26   12   15 1
  27   13   17 1
  28   13   34 1
  29   14   35 1
  30   14   36 1
  31   14   37 1
  32   15   16 2
  33   16   17 1
  34   16   38 1
  35   17   19 1
  36   19   39 1
  37   19   40 1
  38   19   41 1
  39   20   42 1
  40   20   43 1
  41   20   44 1
  42   21   25 ar
  43   21   45 1
  44   22   23 ar
  45   22   46 1
  46   23   24 ar
  47   24   25 ar
  48   24   47 1
  49   25   27 1

#	End of record

