#	Name: ASD01230024
#	Creating user name:	WinNT
#	Creation time:	15. 06. 2019 19:11

#	Modifying user name:	WinNT
#	Modification time:	15. 06. 2019 19:11

#	Program:	/corina/corina34_cracker 3.40 0067  02.08.2006

@<TRIPOS>MOLECULE
ASD01230024
  43   45    0    0    0
SMALL
NO_CHARGES


@<TRIPOS>ATOM
   1 C1            -1.6005     1.7638     0.9177 C.3     
   2 C2            -1.7331     0.2654     1.1975 C.3     
   3 C3            -3.1964    -0.0709     1.4918 C.3     
   4 S4            -1.1771    -0.6720    -0.2526 S.o2    
   5 O5            -2.0665    -0.4769    -1.3435 O.2     
   6 O6             0.2280    -0.5432    -0.4209 O.2     
   7 N7            -1.3938    -2.2578     0.1725 N.am    
   8 C8            -1.5152    -3.4672     2.3307 C.3     
   9 C9            -0.6003    -2.8403     1.2574 C.3     
  10 C10            0.2046    -4.0578     0.7556 C.3     
  11 C11            0.2197    -5.0288     1.9171 C.ar    
  12 C12            1.0334    -6.1205     2.1593 C.ar    
  13 C13            0.8591    -6.8792     3.3132 C.ar    
  14 C14           -0.1384    -6.5330     4.2225 C.ar    
  15 C15           -0.9447    -5.4428     3.9732 C.ar    
  16 C16           -0.7691    -4.6894     2.8229 C.ar    
  17 C17            1.7311    -8.0515     3.5735 C.ar    
  18 C18            1.5620    -8.8164     4.7279 C.ar    
  19 C19            2.4099    -9.9108     4.9249 C.ar    
  20 C20            3.3852   -10.1928     3.9654 C.ar    
  21 N21            3.5100    -9.4434     2.8898 N.ar    
  22 C22            2.7269    -8.4073     2.6651 C.ar    
  23 C23            2.2807   -10.7296     6.0926 C.1     
  24 N24            2.1781   -11.3792     7.0189 N.1     
  25 H25           -1.9346     2.3270     1.7891 H       
  26 H26           -0.5580     2.0034     0.7080 H       
  27 H27           -2.2144     2.0283     0.0568 H       
  28 H28           -1.1192     0.0008     2.0584 H       
  29 H29           -3.3040    -1.1487     1.6141 H       
  30 H30           -3.5075     0.4315     2.4078 H       
  31 H31           -3.8201     0.2649     0.6634 H       
  32 H32           -2.0462    -2.8009    -0.2969 H       
  33 H33           -1.6733    -2.7654     3.1496 H       
  34 H34           -2.4693    -3.7581     1.8913 H       
  35 H35            0.0581    -2.0920     1.6986 H       
  36 H36           -0.2877    -4.5073    -0.1067 H       
  37 H37            1.2210    -3.7595     0.4989 H       
  38 H38            1.8052    -6.3850     1.4518 H       
  39 H39           -0.2797    -7.1172     5.1197 H       
  40 H40           -1.7181    -5.1747     4.6778 H       
  41 H41            0.7975    -8.5698     5.4498 H       
  42 H42            4.0452   -11.0357     4.1077 H       
  43 H43            2.8615    -7.8231     1.7668 H       
@<TRIPOS>BOND
   1    1    2 1
   2    1   25 1
   3    1   26 1
   4    1   27 1
   5    2    3 1
   6    2    4 1
   7    2   28 1
   8    3   29 1
   9    3   30 1
  10    3   31 1
  11    4    5 2
  12    4    6 2
  13    4    7 am
  14    7    9 1
  15    7   32 1
  16    8    9 1
  17    8   16 1
  18    8   33 1
  19    8   34 1
  20    9   10 1
  21    9   35 1
  22   10   11 1
  23   10   36 1
  24   10   37 1
  25   11   12 ar
  26   11   16 ar
  27   12   13 ar
  28   12   38 1
  29   13   14 ar
  30   13   17 1
  31   14   15 ar
  32   14   39 1
  33   15   16 ar
  34   15   40 1
  35   17   18 ar
  36   17   22 ar
  37   18   19 ar
  38   18   41 1
  39   19   20 ar
  40   19   23 1
  41   20   21 ar
  42   20   42 1
  43   21   22 ar
  44   22   43 1
  45   23   24 3

#	End of record

