#	Name: ASD03430069
#	Creating user name:	WinNT
#	Creation time:	15. 06. 2019 20:40

#	Modifying user name:	WinNT
#	Modification time:	15. 06. 2019 20:40

#	Program:	/corina/corina34_cracker 3.40 0067  02.08.2006

@<TRIPOS>MOLECULE
ASD03430069
  45   50    0    0    0
SMALL
NO_CHARGES


@<TRIPOS>ATOM
   1 C1             0.9040     0.8507    -1.0348 C.ar    
   2 C2             0.8173    -0.5091    -0.7792 C.ar    
   3 C3             1.9360    -1.2151    -0.3902 C.ar    
   4 C4             3.1615    -0.5733    -0.2391 C.ar    
   5 C5             3.2459     0.7905    -0.5005 C.ar    
   6 C6             2.1247     1.5009    -0.8952 C.ar    
   7 O7             4.1267    -1.4424     0.1772 O.3     
   8 C8             2.1697    -2.6668    -0.0687 C.3     
   9 C9             3.6993    -2.7914    -0.0920 C.3     
  10 C10            0.7120    -4.0983     1.0004 C.ar    
  11 C11            1.5957    -3.0563     1.2609 C.ar    
  12 C12            1.5207    -3.5832    -1.0659 C.2     
  13 N13            0.6906    -4.3834    -0.3673 N.am    
  14 O14            1.7063    -3.5997    -2.2643 O.2     
  15 C15            1.7818    -2.5979     2.5571 C.ar    
  16 C16            1.0784    -3.1857     3.6083 C.ar    
  17 C17            0.2018    -4.2204     3.3506 C.ar    
  18 C18            0.0165    -4.6759     2.0607 C.ar    
  19 C19           -0.1368    -5.4305    -0.9716 C.3     
  20 O20           -0.2090     1.5310    -1.4253 O.3     
  21 C21           -0.1621     2.9581    -1.3162 C.3     
  22 C22            1.1761     3.4394    -1.8931 C.3     
  23 O23            2.2328     2.8360    -1.1396 O.3     
  24 C24            2.7273    -1.4853     2.8244 C.2     
  25 C25            3.8368    -1.5309     3.6907 C.2     
  26 C26            4.4389    -0.3222     3.6564 C.2     
  27 N27            3.7460     0.4646     2.8053 N.pl3   
  28 N28            2.6802    -0.2837     2.2895 N.2     
  29 H29           -0.1299    -1.0172    -0.8847 H       
  30 H30            4.1927     1.2991    -0.3945 H       
  31 H31            4.0461    -3.1190    -1.0721 H       
  32 H32            4.0443    -3.4697     0.6884 H       
  33 H33            1.2191    -2.8331     4.6194 H       
  34 H34           -0.3432    -4.6766     4.1638 H       
  35 H35           -0.6725    -5.4858     1.8719 H       
  36 H36           -1.1043    -5.0132    -1.2507 H       
  37 H37            0.3610    -5.8195    -1.8599 H       
  38 H38           -0.2826    -6.2378    -0.2539 H       
  39 H39           -0.9849     3.3972    -1.8803 H       
  40 H40           -0.2370     3.2494    -0.2686 H       
  41 H41            1.2544     3.1410    -2.9385 H       
  42 H42            1.2413     4.5246    -1.8142 H       
  43 H43            4.1504    -2.3811     4.2783 H       
  44 H44            5.3194    -0.0353     4.2122 H       
  45 H45            3.9524     1.3868     2.5866 H       
@<TRIPOS>BOND
   1    1    2 ar
   2    1    6 ar
   3    1   20 1
   4    2    3 ar
   5    2   29 1
   6    3    4 ar
   7    3    8 1
   8    4    5 ar
   9    4    7 1
  10    5    6 ar
  11    5   30 1
  12    6   23 1
  13    7    9 1
  14    8    9 1
  15    8   11 1
  16    8   12 1
  17    9   31 1
  18    9   32 1
  19   10   11 ar
  20   10   13 1
  21   10   18 ar
  22   11   15 ar
  23   12   13 am
  24   12   14 2
  25   13   19 1
  26   15   16 ar
  27   15   24 1
  28   16   17 ar
  29   16   33 1
  30   17   18 ar
  31   17   34 1
  32   18   35 1
  33   19   36 1
  34   19   37 1
  35   19   38 1
  36   20   21 1
  37   21   22 1
  38   21   39 1
  39   21   40 1
  40   22   23 1
  41   22   41 1
  42   22   42 1
  43   24   25 1
  44   24   28 2
  45   25   26 2
  46   25   43 1
  47   26   27 1
  48   26   44 1
  49   27   28 1
  50   27   45 1

#	End of record

