#	Name: ASD01840493
#	Creating user name:	WinNT
#	Creation time:	15. 06. 2019 19:37

#	Modifying user name:	WinNT
#	Modification time:	15. 06. 2019 19:37

#	Program:	/corina/corina34_cracker 3.40 0067  02.08.2006

@<TRIPOS>MOLECULE
ASD01840493
  43   46    0    0    0
SMALL
NO_CHARGES


@<TRIPOS>ATOM
   1 C1            -0.1546     1.6396    -0.0462 C.3     
   2 C2            -0.0903     0.1110    -0.0441 C.3     
   3 H3            -1.0900    -0.3008     0.0938 H       
   4 N4             0.4735    -0.3652    -1.3124 N.am    
   5 C5             1.6940    -1.1090    -0.9811 C.3     
   6 C6             1.8590    -1.0741     0.5155 C.ar    
   7 N7             2.7820    -1.5852     1.3193 N.ar    
   8 C8             2.7104    -1.4182     2.6247 C.ar    
   9 C9             3.7821    -2.0172     3.4985 C.3     
  10 N10            1.7296    -0.7426     3.1880 N.ar    
  11 C11            0.7666    -0.2002     2.4470 C.ar    
  12 N12           -0.2646     0.5101     3.0400 N.3     
  13 C13            0.2535     1.6779     3.7769 C.3     
  14 C14           -0.7506     1.3504     4.8909 C.3     
  15 C15           -0.6315    -0.0782     4.3416 C.3     
  16 C16            0.8129    -0.3603     1.0632 C.ar    
  17 C17           -0.0327    -0.1593    -2.5445 C.2     
  18 O18           -1.1075     0.3933    -2.6754 O.2     
  19 C19            0.7189    -0.6054    -3.7361 C.ar    
  20 C20            0.2795    -0.2541    -5.0139 C.ar    
  21 C21            0.9849    -0.6733    -6.1221 C.ar    
  22 C22            2.1275    -1.4414    -5.9694 C.ar    
  23 Cl23           3.0107    -1.9649    -7.3693 Cl      
  24 C24            2.5684    -1.7930    -4.7043 C.ar    
  25 C25            1.8745    -1.3749    -3.5884 C.ar    
  26 H26            0.8550     2.0457    -0.1082 H       
  27 H27           -0.7355     1.9776    -0.9043 H       
  28 H28           -0.6292     1.9846     0.8724 H       
  29 H29            1.6007    -2.1412    -1.3186 H       
  30 H30            2.5539    -0.6394    -1.4587 H       
  31 H31            4.5896    -1.2967     3.6287 H       
  32 H32            3.3594    -2.2688     4.4712 H       
  33 H33            4.1726    -2.9194     3.0278 H       
  34 H34            1.2937     1.5706     4.0845 H       
  35 H35            0.0561     2.6276     3.2798 H       
  36 H36           -0.3552     1.4753     5.8990 H       
  37 H37           -1.7333     1.8012     4.7527 H       
  38 H38           -1.5790    -0.6167     4.3231 H       
  39 H39            0.1725    -0.6540     4.8000 H       
  40 H40           -0.6114     0.3444    -5.1342 H       
  41 H41            0.6458    -0.4025    -7.1111 H       
  42 H42            3.4599    -2.3920    -4.5914 H       
  43 H43            2.2219    -1.6456    -2.6023 H       
@<TRIPOS>BOND
   1    1    2 1
   2    1   26 1
   3    1   27 1
   4    1   28 1
   5    2    3 1
   6    2   16 1
   7    2    4 1
   8    4    5 1
   9    4   17 am
  10    5    6 1
  11    5   29 1
  12    5   30 1
  13    6   16 ar
  14    6    7 ar
  15    7    8 ar
  16    8    9 1
  17    8   10 ar
  18    9   31 1
  19    9   32 1
  20    9   33 1
  21   10   11 ar
  22   11   12 1
  23   11   16 ar
  24   12   15 1
  25   12   13 1
  26   13   14 1
  27   13   34 1
  28   13   35 1
  29   14   15 1
  30   14   36 1
  31   14   37 1
  32   15   38 1
  33   15   39 1
  34   17   18 2
  35   17   19 1
  36   19   25 ar
  37   19   20 ar
  38   20   21 ar
  39   20   40 1
  40   21   22 ar
  41   21   41 1
  42   22   23 1
  43   22   24 ar
  44   24   25 ar
  45   24   42 1
  46   25   43 1

#	End of record

