#	Name: ASD01883504
#	Creating user name:	WinNT
#	Creation time:	15. 06. 2019 19:46

#	Modifying user name:	WinNT
#	Modification time:	15. 06. 2019 19:46

#	Program:	/corina/corina34_cracker 3.40 0067  02.08.2006

@<TRIPOS>MOLECULE
ASD01883504
  52   54    0    0    0
SMALL
NO_CHARGES


@<TRIPOS>ATOM
   1 N1            -0.1954     1.1398    -2.4477 N.am    
   2 C2            -0.1701    -0.1947    -2.2753 C.2     
   3 C3            -1.3481    -0.8796    -1.8880 C.2     
   4 C4            -2.5267    -0.1375    -1.6915 C.2     
   5 C5            -2.4883     1.2574    -1.8878 C.2     
   6 C6            -1.3324     1.8564    -2.2528 C.2     
   7 O7             0.8653    -0.8136    -2.4528 O.2     
   8 C8            -1.3393    -2.2993    -1.7007 C.1     
   9 N9            -1.3323    -3.4255    -1.5521 N.1     
  10 C10            1.0307     1.8347    -2.8479 C.3     
  11 C11            1.1097     1.8909    -4.3748 C.3     
  12 C12            2.3902     2.6166    -4.7928 C.3     
  13 C13            3.6064     1.7985    -4.3544 C.3     
  14 C14            2.4088     2.7830    -6.3136 C.3     
  15 C15           -3.7798    -0.8070    -1.2878 C.ar    
  16 C16           -4.3528    -0.5349    -0.0424 C.ar    
  17 C17           -5.5196    -1.1607     0.3279 C.ar    
  18 C18           -6.1444    -2.0628    -0.5297 C.ar    
  19 C19           -5.5682    -2.3356    -1.7730 C.ar    
  20 C20           -4.4031    -1.7123    -2.1512 C.ar    
  21 C21           -6.3462    -1.0744     1.5960 C.3     
  22 C22           -7.2543    -2.3217     1.4977 C.3     
  23 N23           -7.3174    -2.5619     0.0398 N.3     
  24 C24           -7.4766    -3.9929    -0.2517 C.3     
  25 C25           -6.2352    -4.7334     0.1744 C.2     
  26 C26           -6.0943    -6.2035    -0.1259 C.3     
  27 O27           -5.3532    -4.1489     0.7565 O.2     
  28 H28           -3.3807     1.8481    -1.7432 H       
  29 H29           -1.3150     2.9261    -2.4004 H       
  30 H30            1.0212     2.8483    -2.4470 H       
  31 H31            1.8960     1.2981    -2.4588 H       
  32 H32            1.1192     0.8773    -4.7757 H       
  33 H33            0.2444     2.4275    -4.7640 H       
  34 H34            2.4226     3.5980    -4.3196 H       
  35 H35            4.5186     2.3155    -4.6522 H       
  36 H36            3.5932     1.6799    -3.2709 H       
  37 H37            3.5740     0.8171    -4.8277 H       
  38 H38            1.5423     3.3659    -6.6260 H       
  39 H39            3.3210     3.3000    -6.6114 H       
  40 H40            2.3763     1.8016    -6.7869 H       
  41 H41           -3.8792     0.1662     0.6287 H       
  42 H42           -6.0434    -3.0374    -2.4425 H       
  43 H43           -3.9643    -1.9283    -3.1141 H       
  44 H44           -5.7077    -1.1300     2.4777 H       
  45 H45           -6.9428    -0.1623     1.6068 H       
  46 H46           -6.8018    -3.1707     2.0101 H       
  47 H47           -8.2458    -2.1107     1.8980 H       
  48 H48           -8.3366    -4.3813     0.2939 H       
  49 H49           -7.6326    -4.1306    -1.3216 H       
  50 H50           -6.9824    -6.5535    -0.6521 H       
  51 H51           -5.2153    -6.3642    -0.7501 H       
  52 H52           -5.9834    -6.7559     0.8071 H       
@<TRIPOS>BOND
   1    1    2 am
   2    1   10 1
   3    1    6 1
   4    2    3 1
   5    2    7 2
   6    3    4 2
   7    3    8 1
   8    4    5 1
   9    4   15 1
  10    5    6 2
  11    5   28 1
  12    6   29 1
  13    8    9 3
  14   10   11 1
  15   10   30 1
  16   10   31 1
  17   11   12 1
  18   11   32 1
  19   11   33 1
  20   12   13 1
  21   12   14 1
  22   12   34 1
  23   13   35 1
  24   13   36 1
  25   13   37 1
  26   14   38 1
  27   14   39 1
  28   14   40 1
  29   15   16 ar
  30   15   20 ar
  31   16   17 ar
  32   16   41 1
  33   17   18 ar
  34   17   21 1
  35   18   19 ar
  36   18   23 1
  37   19   20 ar
  38   19   42 1
  39   20   43 1
  40   21   22 1
  41   21   44 1
  42   21   45 1
  43   22   23 1
  44   22   46 1
  45   22   47 1
  46   23   24 1
  47   24   25 1
  48   24   48 1
  49   24   49 1
  50   25   26 1
  51   25   27 2
  52   26   50 1
  53   26   51 1
  54   26   52 1

#	End of record

