#	Name: ASD07110024
#	Creating user name:	WinNT
#	Creation time:	15. 06. 2019 21:09

#	Modifying user name:	WinNT
#	Modification time:	15. 06. 2019 21:09

#	Program:	/corina/corina34_cracker 3.40 0067  02.08.2006

@<TRIPOS>MOLECULE
ASD07110024
 436  444    0    0    0
SMALL
NO_CHARGES


@<TRIPOS>ATOM
   1 C1           -25.0161    12.2451   -27.7951 C.2     
   2 O2           -24.0852    12.0701   -27.0376 O.2     
   3 N3           -23.4800    13.6635   -29.0333 N.3     
   4 C4           -24.8498    13.1338   -29.0007 C.3     
   5 C5           -25.5676     9.5595   -26.4603 C.2     
   6 O6           -24.7352     9.4607   -27.3367 O.2     
   7 N7           -26.1977    11.6403   -27.5616 N.am    
   8 C8           -26.4948    10.7472   -26.4321 C.3     
   9 C9           -27.9557    10.2765   -26.5922 C.3     
  10 C10          -28.2227    10.4808   -28.1069 C.3     
  11 C11          -27.4083    11.7697   -28.3930 C.3     
  12 C12          -25.4102     6.2925   -24.8278 C.2     
  13 O13          -26.5160     6.4178   -24.3458 O.2     
  14 N14          -25.6635     8.6071   -25.5115 N.am    
  15 C15          -24.7622     7.4525   -25.5388 C.3     
  16 C16          -23.4509     7.8124   -24.8374 C.3     
  17 O17          -23.7039     8.0618   -23.4533 O.3     
  18 C18          -24.2374     3.1565   -23.3949 C.2     
  19 O19          -23.1199     3.2311   -23.8604 O.2     
  20 N20          -24.7609     5.1157   -24.7277 N.am    
  21 C21          -25.3415     4.0231   -23.9433 C.3     
  22 C22          -26.2536     3.1815   -24.8382 C.3     
  23 C23          -25.5412     2.8879   -26.1600 C.3     
  24 C24          -24.3975     1.9017   -25.9148 C.3     
  25 C25          -26.5355     2.2795   -27.1510 C.3     
  26 C26          -23.0043     0.4226   -22.8438 C.2     
  27 O27          -23.5460     0.3659   -23.9274 O.2     
  28 N28          -24.4916     2.2985   -22.3871 N.am    
  29 C29          -23.5236     1.3667   -21.7902 C.3     
  30 C30          -24.2667     0.5734   -20.6948 C.3     
  31 C31          -25.7533     0.7037   -21.1194 C.3     
  32 C32          -25.7848     2.1434   -21.6964 C.3     
  33 C33          -21.5323    -2.6482   -23.2770 C.2     
  34 O34          -22.0764    -2.9551   -22.2375 O.2     
  35 N35          -21.9379    -0.3588   -22.5818 N.am    
  36 C36          -21.3651    -1.1950   -23.6396 C.3     
  37 C37          -19.8766    -0.8756   -23.7924 C.3     
  38 C38          -19.7137     0.5483   -24.2585 C.2     
  39 C39          -19.5288     0.9582   -25.5233 C.2     
  40 N40          -19.4232     2.3219   -25.5611 N.pl3   
  41 C41          -19.5405     2.8359   -24.2892 C.ar    
  42 C42          -19.5090     4.1263   -23.7711 C.ar    
  43 C43          -19.6607     4.3235   -22.4159 C.ar    
  44 C44          -19.8451     3.2465   -21.5601 C.ar    
  45 C45          -19.8789     1.9703   -22.0477 C.ar    
  46 C46          -19.7336     1.7479   -23.4181 C.ar    
  47 C47          -20.1801    -5.8355   -24.4500 C.2     
  48 O48          -19.6209    -5.3941   -25.4315 O.2     
  49 N49          -21.0772    -3.6067   -24.1080 N.am    
  50 C50          -21.2398    -5.0194   -23.7556 C.3     
  51 C51          -22.6239    -5.4992   -24.1972 C.3     
  52 C52          -23.6826    -4.7738   -23.4072 C.ar    
  53 C53          -24.1998    -3.5814   -23.8788 C.ar    
  54 C54          -25.1700    -2.9143   -23.1563 C.ar    
  55 C55          -25.6258    -3.4420   -21.9569 C.ar    
  56 O56          -26.5805    -2.7878   -21.2446 O.3     
  57 C57          -25.1055    -4.6388   -21.4862 C.ar    
  58 C58          -24.1391    -5.3047   -22.2150 C.ar    
  59 C59          -19.0195    -8.2230   -25.9503 C.2     
  60 O60          -19.9977    -7.7754   -26.5104 O.2     
  61 N61          -19.8538    -7.0559   -23.9802 N.am    
  62 C62          -18.7760    -7.9125   -24.4959 C.3     
  63 C63          -18.7927    -9.2166   -23.6709 C.3     
  64 C64          -20.2398    -9.2560   -23.1124 C.3     
  65 C65          -20.5145    -7.7502   -22.8600 C.3     
  66 C66          -17.2775   -10.1779   -28.5614 C.2     
  67 O67          -16.3776   -10.5180   -27.8229 O.2     
  68 N68          -18.1503    -8.9981   -26.6287 N.am    
  69 C69          -18.3870    -9.2999   -28.0426 C.3     
  70 C70          -15.0646   -10.7615   -30.8088 C.2     
  71 O71          -15.0566    -9.5496   -30.7622 O.2     
  72 N72          -17.2853   -10.5851   -29.8462 N.am    
  73 C73          -16.2686   -11.5263   -30.3224 C.3     
  74 C74          -16.8422   -12.3586   -31.4710 C.3     
  75 C75          -17.9752   -13.2095   -30.9577 C.2     
  76 O76          -18.3502   -13.0921   -29.8103 O.2     
  77 N77          -18.5717   -14.1009   -31.7737 N.am    
  78 C78          -12.0780   -11.5116   -32.7787 C.2     
  79 O79          -12.4826   -12.6159   -33.0747 O.2     
  80 N80          -13.9968   -11.4242   -31.2955 N.am    
  81 C81          -12.8263   -10.6808   -31.7684 C.3     
  82 C82          -11.9085   -10.3682   -30.5848 C.3     
  83 C83          -12.6255    -9.4227   -29.6191 C.3     
  84 C84          -11.7214    -9.1149   -28.4534 C.2     
  85 O85          -10.6127    -9.6036   -28.4002 O.2     
  86 N86          -12.1450    -8.2965   -27.4699 N.am    
  87 C87           -8.7872   -11.4069   -34.3670 C.2     
  88 O88           -8.4810   -10.2811   -34.0355 O.2     
  89 N89          -10.9592   -11.0273   -33.3534 N.am    
  90 C90          -10.2318   -11.8349   -34.3356 C.3     
  91 C91          -10.8528   -11.6361   -35.7197 C.3     
  92 C92           -6.2506   -10.8735   -35.9731 C.2     
  93 O93           -7.2287   -10.4000   -36.5116 O.2     
  94 N94           -7.8355   -12.2750   -34.7633 N.am    
  95 C95           -6.4104   -11.9612   -34.9424 C.3     
  96 C96           -5.7148   -13.2505   -35.4278 C.3     
  97 C97           -6.8843   -14.0679   -36.0374 C.3     
  98 C98           -8.0501   -13.6981   -35.0830 C.3     
  99 C99           -3.4972    -9.4659   -37.9225 C.2     
 100 O100          -2.6742   -10.2298   -37.4643 O.2     
 101 N101          -5.0208   -10.4269   -36.2964 N.am    
 102 C102          -4.8655    -9.3695   -37.2984 C.3     
 103 C103          -5.0249    -8.0037   -36.6274 C.3     
 104 C104          -6.4178    -7.9019   -36.0026 C.3     
 105 C105          -3.9638    -7.8443   -35.5368 C.3     
 106 C106          -1.5246    -7.6010   -40.3708 C.2     
 107 O107          -2.2577    -6.6368   -40.3101 O.2     
 108 N108          -3.1881    -8.7032   -38.9898 N.am    
 109 C109          -1.9020    -8.8799   -39.6687 C.3     
 110 C110          -2.0175   -10.0097   -40.6940 C.3     
 111 C111          -2.2776   -11.3317   -39.9690 C.3     
 112 C112          -2.3914   -12.4444   -40.9789 C.2     
 113 O113          -2.2762   -12.2047   -42.1575 O.2     
 114 O114          -2.6207   -13.7019   -40.5690 O.3     
 115 C115          -0.6686    -6.0485   -42.9662 C.2     
 116 O116          -1.4533    -6.8820   -43.3665 O.2     
 117 N117          -0.3723    -7.5287   -41.0661 N.am    
 118 C118           0.0481    -6.2557   -41.6568 C.3     
 119 C119           1.5584    -6.2807   -41.9005 C.3     
 120 C120           2.2787    -6.3794   -40.5804 C.2     
 121 O121           1.6529    -6.3273   -39.5428 O.2     
 122 N122           3.6182    -6.5256   -40.5529 N.am    
 123 C123          -0.1656    -3.9247   -45.8811 C.2     
 124 O124           0.7009    -3.2434   -45.3754 O.2     
 125 N125          -0.4375    -4.9368   -43.6923 N.am    
 126 C126          -1.0487    -4.7857   -45.0151 C.3     
 127 C127          -2.4211    -4.1251   -44.8704 C.3     
 128 C128          -3.0750    -4.0005   -46.2480 C.3     
 129 C129          -3.3845    -5.3960   -46.7937 C.3     
 130 C130          -4.3738    -3.2012   -46.1256 C.3     
 131 C131          -0.2704    -2.7221   -49.3316 C.2     
 132 O132          -1.3642    -3.2081   -49.5267 O.2     
 133 N133          -0.3389    -3.9119   -47.2177 N.am    
 134 C134           0.4689    -3.0192   -48.0524 C.3     
 135 C135           1.8024    -3.6944   -48.3791 C.3     
 136 C136           2.6074    -3.8831   -47.0917 C.3     
 137 C137           3.9209    -4.5482   -47.4135 C.2     
 138 O138           4.1860    -4.8411   -48.5553 O.2     
 139 O139           4.7963    -4.8151   -46.4316 O.3     
 140 C140           0.5533    -1.2619   -52.5801 C.2     
 141 O141           1.7407    -1.2445   -52.3337 O.2     
 142 N142           0.2841    -1.9162   -50.2587 N.am    
 143 C143          -0.4345    -1.6273   -51.5022 C.3     
 144 C144          -1.3972    -0.4599   -51.2756 C.3     
 145 C145          -2.4750    -0.8751   -50.2722 C.3     
 146 C146          -3.4376     0.2924   -50.0456 C.3     
 147 N147          -4.4697    -0.1052   -49.0849 N.pl3   
 148 C148          -5.4520     0.7861   -48.7231 C.2     
 149 N149          -6.3702     0.4324   -47.8683 N.2     
 150 N150          -5.4657     2.0505   -49.2628 N.pl3   
 151 C151           0.3971     0.2593   -55.9004 C.2     
 152 O152          -0.7746     0.5462   -55.7751 O.2     
 153 N153           0.1172    -0.9545   -53.8177 N.am    
 154 C154           1.0775    -0.5992   -54.8655 C.3     
 155 C155           1.6052    -1.8739   -55.5271 C.3     
 156 C156           2.3912    -2.6739   -54.5206 C.ar    
 157 C157           1.7536    -3.6198   -53.7397 C.ar    
 158 C158           2.4746    -4.3537   -52.8164 C.ar    
 159 C159           3.8332    -4.1420   -52.6743 C.ar    
 160 C160           4.4709    -3.1968   -53.4558 C.ar    
 161 C161           3.7508    -2.4660   -54.3822 C.ar    
 162 C162          -0.1181     0.4828   -59.0574 C.2     
 163 O163           0.0642    -0.7082   -58.9192 O.2     
 164 N164           1.0907     0.7083   -56.9652 N.am    
 165 C165           0.4048     1.4497   -58.0264 C.3     
 166 C166           1.3867     2.4189   -58.6879 C.3     
 167 C167           1.8224     3.4554   -57.6844 C.2     
 168 O168           1.4597     3.3719   -56.5301 O.2     
 169 N169           2.6150     4.4750   -58.0698 N.am    
 170 C170          -0.0978    -0.1076   -62.2092 C.2     
 171 O171           0.9313     0.5183   -62.0674 O.2     
 172 N172          -0.7883     0.9417   -60.1329 N.am    
 173 C173          -1.2006     0.0145   -61.1895 C.3     
 174 C174          -2.4659     0.5440   -61.8675 C.3     
 175 C175          -3.5980     0.5638   -60.8730 C.2     
 176 O176          -3.4385     0.1010   -59.7633 O.2     
 177 N177          -4.7876     1.0958   -61.2167 N.am    
 178 C178           0.1186    -1.1798   -65.6617 C.2     
 179 O179          -1.0895    -1.2507   -65.7428 O.2     
 180 N180          -0.2551    -0.9123   -63.2789 N.am    
 181 C181           0.7718    -0.9522   -64.3229 C.3     
 182 C182           1.7503    -2.0920   -64.0325 C.3     
 183 C183           0.9719    -3.3942   -63.8338 C.3     
 184 C184           0.4055    -3.8598   -65.1767 C.3     
 185 C185           2.5429    -1.7729   -62.7633 C.3     
 186 C186           1.2824    -2.2244   -68.9777 C.2     
 187 O187           2.4630    -2.0591   -68.7548 O.2     
 188 N188           0.8768    -1.3046   -66.7690 N.am    
 189 C189           0.2508    -1.6325   -68.0523 C.3     
 190 C190          -0.3261    -0.3611   -68.6780 C.3     
 191 C191          -1.0702    -0.7190   -69.9661 C.3     
 192 C192          -2.2690    -1.6091   -69.6322 C.3     
 193 C193          -1.5594     0.5619   -70.6451 C.3     
 194 C194           1.2484    -3.6339   -72.3504 C.2     
 195 O195           0.0718    -3.3830   -72.5037 O.2     
 196 N196           0.8931    -2.9375   -70.0531 N.am    
 197 C197           1.8916    -3.4361   -71.0020 C.3     
 198 C198           2.4486    -4.7705   -70.5020 C.3     
 199 C199           3.2096    -4.5474   -69.1936 C.3     
 200 C200           3.6596    -5.8963   -68.6289 C.3     
 201 C201           4.4354    -3.6713   -69.4596 C.3     
 202 C202           2.1264    -5.3174   -75.4742 C.2     
 203 O203           3.1022    -5.8431   -74.9817 O.2     
 204 N204           1.9807    -4.0896   -73.3860 N.am    
 205 C205           1.3554    -4.2819   -74.6969 C.3     
 206 C206           1.3626    -2.9583   -75.4644 C.3     
 207 C207           0.4773    -1.9432   -74.7387 C.3     
 208 C208           0.4843    -0.6395   -75.4946 C.2     
 209 O209           1.1335    -0.5328   -76.5135 O.2     
 210 N210          -0.2307     0.4079   -75.0384 N.am    
 211 C211           3.6381    -6.0064   -78.1775 C.2     
 212 O212           3.8181    -4.8174   -78.0609 O.2     
 213 N213           1.7317    -5.6594   -76.7166 N.am    
 214 C214           2.4812    -6.6661   -77.4723 C.3     
 215 C215           1.5600    -7.3193   -78.5046 C.3     
 216 C216           0.4714    -8.0823   -77.7949 C.ar    
 217 C217          -0.7168    -7.4521   -77.4743 C.ar    
 218 C218          -1.7161    -8.1492   -76.8233 C.ar    
 219 C219          -1.5268    -9.4829   -76.4916 C.ar    
 220 O220          -2.5086   -10.1710   -75.8516 O.3     
 221 C221          -0.3339   -10.1132   -76.8147 C.ar    
 222 C222           0.6603    -9.4130   -77.4704 C.ar    
 223 O223           4.4686    -6.7398   -78.9352 O.3     
 224 H224         -22.8028    12.9156   -29.0218 H       
 225 H225         -23.3430    14.2630   -29.8333 H       
 226 H226         -25.0379    12.5569   -29.9061 H       
 227 H227         -25.5577    13.9607   -28.9430 H       
 228 H228         -26.3776    11.2866   -25.4923 H       
 229 H229         -28.0540     9.2252   -26.3217 H       
 230 H230         -28.6274    10.8937   -25.9955 H       
 231 H231         -27.8449     9.6390   -28.6873 H       
 232 H232         -29.2838    10.6406   -28.2986 H       
 233 H233         -27.9764    12.6529   -28.1009 H       
 234 H234         -27.1400    11.8221   -29.4482 H       
 235 H235         -26.3293     8.6862   -24.8105 H       
 236 H236         -24.5571     7.1761   -26.5730 H       
 237 H237         -22.7478     6.9853   -24.9350 H       
 238 H238         -23.0269     8.7058   -25.2960 H       
 239 H239         -22.9152     8.2964   -22.9453 H       
 240 H240         -23.9091     4.9922   -25.1750 H       
 241 H241         -25.9224     4.4365   -23.1189 H       
 242 H242         -26.4897     2.2432   -24.3364 H       
 243 H243         -27.1748     3.7296   -25.0359 H       
 244 H244         -25.1402     3.8146   -26.5704 H       
 245 H245         -24.7782     1.0278   -25.3861 H       
 246 H246         -23.9735     1.5922   -26.8701 H       
 247 H247         -23.6258     2.3825   -25.3135 H       
 248 H248         -27.3504     2.9820   -27.3257 H       
 249 H249         -26.0280     2.0702   -28.0927 H       
 250 H250         -26.9366     1.3527   -26.7407 H       
 251 H251         -22.6957     1.9233   -21.3509 H       
 252 H252         -23.9552    -0.4712   -20.6967 H       
 253 H253         -24.1045     1.0235   -19.7154 H       
 254 H254         -26.0077    -0.0322   -21.8823 H       
 255 H255         -26.4150     0.6154   -20.2577 H       
 256 H256         -25.8759     2.8745   -20.8931 H       
 257 H257         -26.6076     2.2505   -22.4032 H       
 258 H258         -21.5496    -0.3675   -21.6929 H       
 259 H259         -21.8783    -0.9938   -24.5799 H       
 260 H260         -19.3772    -1.0028   -22.8320 H       
 261 H261         -19.4335    -1.5505   -24.5247 H       
 262 H262         -19.4715     0.3079   -26.3837 H       
 263 H263         -19.2860     2.8481   -26.3643 H       
 264 H264         -19.3656     4.9708   -24.4289 H       
 265 H265         -19.6355     5.3262   -22.0155 H       
 266 H266         -19.9624     3.4184   -20.5004 H       
 267 H267         -20.0224     1.1371   -21.3757 H       
 268 H268         -20.6420    -3.3613   -24.9395 H       
 269 H269         -21.1411    -5.1384   -22.6766 H       
 270 H270         -22.7580    -5.2934   -25.2591 H       
 271 H271         -22.7100    -6.5714   -24.0211 H       
 272 H272         -23.8447    -3.1710   -24.8125 H       
 273 H273         -25.5732    -1.9825   -23.5247 H       
 274 H274         -27.4850    -3.0427   -21.4725 H       
 275 H275         -25.4584    -5.0515   -20.5526 H       
 276 H276         -23.7370    -6.2386   -21.8512 H       
 277 H277         -17.8156    -7.4102   -24.3800 H       
 278 H278         -18.6021   -10.0793   -24.3093 H       
 279 H279         -18.0671    -9.1686   -22.8589 H       
 280 H280         -20.9317    -9.6647   -23.8488 H       
 281 H281         -20.2840    -9.8209   -22.1813 H       
 282 H282         -20.0804    -7.4370   -21.9105 H       
 283 H283         -21.5866    -7.5536   -22.8712 H       
 284 H284         -17.3679    -9.3560   -26.1808 H       
 285 H285         -18.4126    -8.3714   -28.6130 H       
 286 H286         -19.3402    -9.8179   -28.1489 H       
 287 H287         -17.9640   -10.2550   -30.4555 H       
 288 H288         -15.9744   -12.1867   -29.5068 H       
 289 H289         -17.2119   -11.6941   -32.2519 H       
 290 H290         -16.0618   -13.0006   -31.8795 H       
 291 H291         -18.2718   -14.1948   -32.6914 H       
 292 H292         -19.3010   -14.6486   -31.4433 H       
 293 H293         -14.0032   -12.3935   -31.3328 H       
 294 H294         -13.1507    -9.7494   -32.2325 H       
 295 H295         -11.6556   -11.2934   -30.0669 H       
 296 H296         -10.9965    -9.8940   -30.9476 H       
 297 H297         -12.8784    -8.4976   -30.1370 H       
 298 H298         -13.5375    -9.8970   -29.2563 H       
 299 H299         -13.0317    -7.9056   -27.5123 H       
 300 H300         -11.5630    -8.0983   -26.7195 H       
 301 H301         -10.6357   -10.1440   -33.1167 H       
 302 H302         -10.2930   -12.8871   -34.0577 H       
 303 H303         -10.7137   -10.6021   -36.0352 H       
 304 H304         -10.3689   -12.3022   -36.4341 H       
 305 H305         -11.9181   -11.8624   -35.6759 H       
 306 H306          -5.9797   -11.6394   -33.9942 H       
 307 H307          -4.9667   -13.0226   -36.1870 H       
 308 H308          -5.2659   -13.7851   -34.5907 H       
 309 H309          -7.0942   -13.7480   -37.0581 H       
 310 H310          -6.6751   -15.1369   -35.9998 H       
 311 H311          -8.0068   -14.3013   -34.1761 H       
 312 H312          -9.0081   -13.8340   -35.5847 H       
 313 H313          -4.2385   -10.8056   -35.8657 H       
 314 H314          -5.6260    -9.4860   -38.0705 H       
 315 H315          -4.9021    -7.2168   -37.3716 H       
 316 H316          -6.5567    -8.7150   -35.2900 H       
 317 H317          -6.5159    -6.9465   -35.4873 H       
 318 H318          -7.1731    -7.9718   -36.7853 H       
 319 H319          -2.9715    -7.9168   -35.9819 H       
 320 H320          -4.0774    -6.8713   -35.0588 H       
 321 H321          -4.0866    -8.6313   -34.7926 H       
 322 H322          -3.8172    -8.0372   -39.3085 H       
 323 H323          -1.1357    -9.1316   -38.9355 H       
 324 H324          -2.8428    -9.7999   -41.3743 H       
 325 H325          -1.0891   -10.0825   -41.2605 H       
 326 H326          -1.4523   -11.5415   -39.2886 H       
 327 H327          -3.2060   -11.2588   -39.4025 H       
 328 H328          -2.6858   -14.3818   -41.2536 H       
 329 H329           0.1786    -8.3196   -41.1755 H       
 330 H330          -0.1966    -5.4407   -40.9757 H       
 331 H331           1.8126    -7.1419   -42.5184 H       
 332 H332           1.8592    -5.3658   -42.4110 H       
 333 H333           4.1187    -6.5673   -41.3828 H       
 334 H334           4.0818    -6.5892   -39.7033 H       
 335 H335           0.1335    -4.2367   -43.3390 H       
 336 H336          -1.1644    -5.7666   -45.4761 H       
 337 H337          -3.0513    -4.7348   -44.2229 H       
 338 H338          -2.3029    -3.1336   -44.4333 H       
 339 H339          -2.3951    -3.4871   -46.9278 H       
 340 H340          -3.7930    -5.3100   -47.8006 H       
 341 H341          -2.4686    -5.9862   -46.8225 H       
 342 H342          -4.1123    -5.8859   -46.1469 H       
 343 H343          -4.1534    -2.2070   -45.7368 H       
 344 H344          -4.8397    -3.1124   -47.1071 H       
 345 H345          -5.0538    -3.7146   -45.4458 H       
 346 H346          -0.9984    -4.4937   -47.6268 H       
 347 H347           0.6546    -2.0889   -47.5156 H       
 348 H348           1.6154    -4.6660   -48.8364 H       
 349 H349           2.3661    -3.0693   -49.0717 H       
 350 H350           2.7945    -2.9116   -46.6344 H       
 351 H351           2.0437    -4.5082   -46.3991 H       
 352 H352           5.6253    -5.2425   -46.6868 H       
 353 H353           1.1590    -1.5275   -50.1027 H       
 354 H354          -0.9980    -2.5084   -51.8094 H       
 355 H355          -0.8458     0.3948   -50.8837 H       
 356 H356          -1.8664    -0.1871   -52.2209 H       
 357 H357          -3.0264    -1.7298   -50.6642 H       
 358 H358          -2.0058    -1.1479   -49.3270 H       
 359 H359          -2.8863     1.1471   -49.6537 H       
 360 H360          -3.9069     0.5651   -50.9908 H       
 361 H361          -4.4601    -0.9972   -48.7040 H       
 362 H362          -7.0633     1.0613   -47.6130 H       
 363 H363          -4.7823     2.3137   -49.8989 H       
 364 H364          -6.1587     2.6793   -49.0075 H       
 365 H365          -0.8325    -0.9684   -54.0147 H       
 366 H366           1.9083    -0.0478   -54.4252 H       
 367 H367           0.7669    -2.4689   -55.8895 H       
 368 H368           2.2509    -1.6082   -56.3642 H       
 369 H369           0.6921    -3.7851   -53.8508 H       
 370 H370           1.9763    -5.0921   -52.2058 H       
 371 H371           4.3963    -4.7149   -51.9524 H       
 372 H372           5.5324    -3.0312   -53.3446 H       
 373 H373           4.2497    -1.7301   -54.9953 H       
 374 H374           2.0439     0.5406   -57.0289 H       
 375 H375          -0.4267     2.0101   -57.5991 H       
 376 H376           2.2577     1.8679   -59.0427 H       
 377 H377           0.9000     2.9106   -59.5302 H       
 378 H378           2.9051     4.5417   -58.9930 H       
 379 H379           2.8955     5.1421   -57.4239 H       
 380 H380          -0.9976     1.8859   -60.2073 H       
 381 H381          -1.4037    -0.9643   -60.7550 H       
 382 H382          -2.2861     1.5548   -62.2335 H       
 383 H383          -2.7282    -0.1039   -62.7038 H       
 384 H384          -4.9152     1.4659   -62.1042 H       
 385 H385          -5.5163     1.1085   -60.5766 H       
 386 H386          -1.0483    -1.4651   -63.3575 H       
 387 H387           1.3114    -0.0052   -64.3382 H       
 388 H388           2.4372    -2.2038   -64.8714 H       
 389 H389           1.6389    -4.1590   -63.4359 H       
 390 H390           0.1540    -3.2252   -63.1334 H       
 391 H391          -0.3744    -3.1706   -65.5006 H       
 392 H392           1.2029    -3.8812   -65.9195 H       
 393 H393          -0.0154    -4.8591   -65.0666 H       
 394 H394           1.8550    -1.6481   -61.9271 H       
 395 H395           3.2306    -2.5910   -62.5491 H       
 396 H396           3.1078    -0.8522   -62.9096 H       
 397 H397           1.8369    -1.1772   -66.7162 H       
 398 H398          -0.5502    -2.3543   -67.8919 H       
 399 H399          -1.0173     0.1073   -67.9774 H       
 400 H400           0.4841     0.3312   -68.9068 H       
 401 H401          -0.3976    -1.2523   -70.6380 H       
 402 H402          -2.9791    -1.0490   -69.0238 H       
 403 H403          -2.7533    -1.9276   -70.5553 H       
 404 H404          -1.9285    -2.4848   -69.0796 H       
 405 H405          -0.7054     1.1960   -70.8830 H       
 406 H406          -2.0895     0.3069   -71.5628 H       
 407 H407          -2.2319     1.0952   -69.9733 H       
 408 H408          -0.0483    -3.1205   -70.1987 H       
 409 H409           2.7029    -2.7135   -71.0890 H       
 410 H410           1.6269    -5.4658   -70.3303 H       
 411 H411           3.1250    -5.1849   -71.2496 H       
 412 H412           2.5579    -4.0515   -68.4742 H       
 413 H413           4.3114    -6.3921   -69.3483 H       
 414 H414           4.2018    -5.7373   -67.6968 H       
 415 H415           2.7864    -6.5204   -68.4394 H       
 416 H416           5.0872    -4.1671   -70.1790 H       
 417 H417           4.1148    -2.7103   -69.8619 H       
 418 H418           4.9776    -3.5123   -68.5275 H       
 419 H419           2.9218    -4.2903   -73.2635 H       
 420 H420           0.3275    -4.6188   -74.5632 H       
 421 H421           2.3820    -2.5766   -75.5209 H       
 422 H422           0.9789    -3.1204   -76.4717 H       
 423 H423          -0.5421    -2.3249   -74.6821 H       
 424 H424           0.8610    -1.7811   -73.7314 H       
 425 H425          -0.7499     0.3226   -74.2235 H       
 426 H426          -0.2262     1.2470   -75.5250 H       
 427 H427           0.9513    -5.2390   -77.1105 H       
 428 H428           2.8584    -7.4270   -76.7889 H       
 429 H429           1.1133    -6.5482   -79.1323 H       
 430 H430           2.1378    -8.0038   -79.1256 H       
 431 H431          -0.8636    -6.4138   -77.7328 H       
 432 H432          -2.6437    -7.6563   -76.5725 H       
 433 H433          -3.1312   -10.6121   -76.4456 H       
 434 H434          -0.1841   -11.1513   -76.5572 H       
 435 H435           1.5874    -9.9044   -77.7261 H       
 436 H436           5.1963    -6.2724   -79.3678 H       
@<TRIPOS>BOND
   1    1    2 2
   2    1    4 1
   3    1    7 am
   4    3    4 1
   5    3  224 1
   6    3  225 1
   7    4  226 1
   8    4  227 1
   9    5    6 2
  10    5   14 am
  11    5    8 1
  12    7    8 1
  13    7   11 1
  14    8    9 1
  15    8  228 1
  16    9   10 1
  17    9  229 1
  18    9  230 1
  19   10   11 1
  20   10  231 1
  21   10  232 1
  22   11  233 1
  23   11  234 1
  24   12   13 2
  25   12   15 1
  26   12   20 am
  27   14   15 1
  28   14  235 1
  29   15   16 1
  30   15  236 1
  31   16   17 1
  32   16  237 1
  33   16  238 1
  34   17  239 1
  35   18   19 2
  36   18   21 1
  37   18   28 am
  38   20   21 1
  39   20  240 1
  40   21   22 1
  41   21  241 1
  42   22   23 1
  43   22  242 1
  44   22  243 1
  45   23   24 1
  46   23   25 1
  47   23  244 1
  48   24  245 1
  49   24  246 1
  50   24  247 1
  51   25  248 1
  52   25  249 1
  53   25  250 1
  54   26   27 2
  55   26   35 am
  56   26   29 1
  57   28   29 1
  58   28   32 1
  59   29   30 1
  60   29  251 1
  61   30   31 1
  62   30  252 1
  63   30  253 1
  64   31   32 1
  65   31  254 1
  66   31  255 1
  67   32  256 1
  68   32  257 1
  69   33   34 2
  70   33   36 1
  71   33   49 am
  72   35   36 1
  73   35  258 1
  74   36   37 1
  75   36  259 1
  76   37   38 1
  77   37  260 1
  78   37  261 1
  79   38   39 2
  80   38   46 1
  81   39   40 1
  82   39  262 1
  83   40   41 1
  84   40  263 1
  85   41   42 ar
  86   41   46 ar
  87   42   43 ar
  88   42  264 1
  89   43   44 ar
  90   43  265 1
  91   44   45 ar
  92   44  266 1
  93   45   46 ar
  94   45  267 1
  95   47   48 2
  96   47   50 1
  97   47   61 am
  98   49   50 1
  99   49  268 1
 100   50   51 1
 101   50  269 1
 102   51   52 1
 103   51  270 1
 104   51  271 1
 105   52   53 ar
 106   52   58 ar
 107   53   54 ar
 108   53  272 1
 109   54   55 ar
 110   54  273 1
 111   55   56 1
 112   55   57 ar
 113   56  274 1
 114   57   58 ar
 115   57  275 1
 116   58  276 1
 117   59   60 2
 118   59   68 am
 119   59   62 1
 120   61   62 1
 121   61   65 1
 122   62   63 1
 123   62  277 1
 124   63   64 1
 125   63  278 1
 126   63  279 1
 127   64   65 1
 128   64  280 1
 129   64  281 1
 130   65  282 1
 131   65  283 1
 132   66   67 2
 133   66   69 1
 134   66   72 am
 135   68   69 1
 136   68  284 1
 137   69  285 1
 138   69  286 1
 139   70   71 2
 140   70   73 1
 141   70   80 am
 142   72   73 1
 143   72  287 1
 144   73   74 1
 145   73  288 1
 146   74   75 1
 147   74  289 1
 148   74  290 1
 149   75   76 2
 150   75   77 am
 151   77  291 1
 152   77  292 1
 153   78   79 2
 154   78   81 1
 155   78   89 am
 156   80   81 1
 157   80  293 1
 158   81   82 1
 159   81  294 1
 160   82   83 1
 161   82  295 1
 162   82  296 1
 163   83   84 1
 164   83  297 1
 165   83  298 1
 166   84   85 2
 167   84   86 am
 168   86  299 1
 169   86  300 1
 170   87   88 2
 171   87   90 1
 172   87   94 am
 173   89   90 1
 174   89  301 1
 175   90   91 1
 176   90  302 1
 177   91  303 1
 178   91  304 1
 179   91  305 1
 180   92   93 2
 181   92  101 am
 182   92   95 1
 183   94   95 1
 184   94   98 1
 185   95   96 1
 186   95  306 1
 187   96   97 1
 188   96  307 1
 189   96  308 1
 190   97   98 1
 191   97  309 1
 192   97  310 1
 193   98  311 1
 194   98  312 1
 195   99  100 2
 196   99  102 1
 197   99  108 am
 198  101  102 1
 199  101  313 1
 200  102  103 1
 201  102  314 1
 202  103  104 1
 203  103  105 1
 204  103  315 1
 205  104  316 1
 206  104  317 1
 207  104  318 1
 208  105  319 1
 209  105  320 1
 210  105  321 1
 211  106  107 2
 212  106  109 1
 213  106  117 am
 214  108  109 1
 215  108  322 1
 216  109  110 1
 217  109  323 1
 218  110  111 1
 219  110  324 1
 220  110  325 1
 221  111  112 1
 222  111  326 1
 223  111  327 1
 224  112  113 2
 225  112  114 1
 226  114  328 1
 227  115  116 2
 228  115  118 1
 229  115  125 am
 230  117  118 1
 231  117  329 1
 232  118  119 1
 233  118  330 1
 234  119  120 1
 235  119  331 1
 236  119  332 1
 237  120  121 2
 238  120  122 am
 239  122  333 1
 240  122  334 1
 241  123  124 2
 242  123  126 1
 243  123  133 am
 244  125  126 1
 245  125  335 1
 246  126  127 1
 247  126  336 1
 248  127  128 1
 249  127  337 1
 250  127  338 1
 251  128  129 1
 252  128  130 1
 253  128  339 1
 254  129  340 1
 255  129  341 1
 256  129  342 1
 257  130  343 1
 258  130  344 1
 259  130  345 1
 260  131  132 2
 261  131  134 1
 262  131  142 am
 263  133  134 1
 264  133  346 1
 265  134  135 1
 266  134  347 1
 267  135  136 1
 268  135  348 1
 269  135  349 1
 270  136  137 1
 271  136  350 1
 272  136  351 1
 273  137  138 2
 274  137  139 1
 275  139  352 1
 276  140  141 2
 277  140  143 1
 278  140  153 am
 279  142  143 1
 280  142  353 1
 281  143  144 1
 282  143  354 1
 283  144  145 1
 284  144  355 1
 285  144  356 1
 286  145  146 1
 287  145  357 1
 288  145  358 1
 289  146  147 1
 290  146  359 1
 291  146  360 1
 292  147  148 1
 293  147  361 1
 294  148  149 2
 295  148  150 1
 296  149  362 1
 297  150  363 1
 298  150  364 1
 299  151  152 2
 300  151  154 1
 301  151  164 am
 302  153  154 1
 303  153  365 1
 304  154  155 1
 305  154  366 1
 306  155  156 1
 307  155  367 1
 308  155  368 1
 309  156  157 ar
 310  156  161 ar
 311  157  158 ar
 312  157  369 1
 313  158  159 ar
 314  158  370 1
 315  159  160 ar
 316  159  371 1
 317  160  161 ar
 318  160  372 1
 319  161  373 1
 320  162  163 2
 321  162  165 1
 322  162  172 am
 323  164  165 1
 324  164  374 1
 325  165  166 1
 326  165  375 1
 327  166  167 1
 328  166  376 1
 329  166  377 1
 330  167  168 2
 331  167  169 am
 332  169  378 1
 333  169  379 1
 334  170  171 2
 335  170  173 1
 336  170  180 am
 337  172  173 1
 338  172  380 1
 339  173  174 1
 340  173  381 1
 341  174  175 1
 342  174  382 1
 343  174  383 1
 344  175  176 2
 345  175  177 am
 346  177  384 1
 347  177  385 1
 348  178  179 2
 349  178  181 1
 350  178  188 am
 351  180  181 1
 352  180  386 1
 353  181  182 1
 354  181  387 1
 355  182  183 1
 356  182  185 1
 357  182  388 1
 358  183  184 1
 359  183  389 1
 360  183  390 1
 361  184  391 1
 362  184  392 1
 363  184  393 1
 364  185  394 1
 365  185  395 1
 366  185  396 1
 367  186  187 2
 368  186  189 1
 369  186  196 am
 370  188  189 1
 371  188  397 1
 372  189  190 1
 373  189  398 1
 374  190  191 1
 375  190  399 1
 376  190  400 1
 377  191  192 1
 378  191  193 1
 379  191  401 1
 380  192  402 1
 381  192  403 1
 382  192  404 1
 383  193  405 1
 384  193  406 1
 385  193  407 1
 386  194  195 2
 387  194  197 1
 388  194  204 am
 389  196  197 1
 390  196  408 1
 391  197  198 1
 392  197  409 1
 393  198  199 1
 394  198  410 1
 395  198  411 1
 396  199  200 1
 397  199  201 1
 398  199  412 1
 399  200  413 1
 400  200  414 1
 401  200  415 1
 402  201  416 1
 403  201  417 1
 404  201  418 1
 405  202  203 2
 406  202  205 1
 407  202  213 am
 408  204  205 1
 409  204  419 1
 410  205  206 1
 411  205  420 1
 412  206  207 1
 413  206  421 1
 414  206  422 1
 415  207  208 1
 416  207  423 1
 417  207  424 1
 418  208  209 2
 419  208  210 am
 420  210  425 1
 421  210  426 1
 422  211  212 2
 423  211  214 1
 424  211  223 1
 425  213  214 1
 426  213  427 1
 427  214  215 1
 428  214  428 1
 429  215  216 1
 430  215  429 1
 431  215  430 1
 432  216  217 ar
 433  216  222 ar
 434  217  218 ar
 435  217  431 1
 436  218  219 ar
 437  218  432 1
 438  219  220 1
 439  219  221 ar
 440  220  433 1
 441  221  222 ar
 442  221  434 1
 443  222  435 1
 444  223  436 1

#	End of record

