#	Name: ASD01881969
#	Creating user name:	WinNT
#	Creation time:	15. 06. 2019 19:43

#	Modifying user name:	WinNT
#	Modification time:	15. 06. 2019 19:43

#	Program:	/corina/corina34_cracker 3.40 0067  02.08.2006

@<TRIPOS>MOLECULE
ASD01881969
  50   53    0    0    0
SMALL
NO_CHARGES


@<TRIPOS>ATOM
   1 N1            -0.0178     1.4642     0.0101 N.3     
   2 C2             0.0021    -0.0041     0.0020 C.3     
   3 C3             0.6797    -0.4993    -1.2777 C.3     
   4 C4             2.1079     0.0494    -1.3384 C.3     
   5 C5             2.0615     1.5788    -1.2797 C.3     
   6 C6             1.3439     2.0138     0.0000 C.3     
   7 C7             2.8809    -0.4635    -0.1956 C.1     
   8 N8             3.4775    -0.8594     0.6864 N.1     
   9 F9             2.7135    -0.3545    -2.5331 F       
  10 C10           -0.7829     1.9741     1.1559 C.3     
  11 C11           -0.5764     3.4854     1.2751 C.3     
  12 C12           -1.3731     4.0164     2.4685 C.3     
  13 O13           -1.1803     5.4279     2.5799 O.3     
  14 N14           -3.6618     8.2145     6.5900 N.pl3   
  15 N15           -3.1511     9.4738     6.2420 N.2     
  16 N16           -2.3933     9.3579     5.2091 N.2     
  17 C17           -2.3424     8.0722     4.8071 C.ar    
  18 C18           -3.1489     7.3198     5.6786 C.ar    
  19 C19           -1.6779     7.4230     3.7576 C.ar    
  20 C20           -1.8241     6.0606     3.5970 C.ar    
  21 C21           -2.6265     5.3285     4.4688 C.ar    
  22 C22           -3.2814     5.9480     5.4957 C.ar    
  23 C23           -4.5591     7.9105     7.7074 C.3     
  24 C24           -6.0117     8.0304     7.2422 C.3     
  25 C25           -7.1065     7.6365     8.2357 C.3     
  26 C26           -6.8760     9.1104     7.8960 C.3     
  27 Br27          -0.5866     8.4088     2.5689 Br      
  28 H28            0.5557    -0.3645     0.8690 H       
  29 H29           -1.0198    -0.3814     0.0413 H       
  30 H30            0.7083    -1.5890    -1.2760 H       
  31 H31            0.1187    -0.1507    -2.1448 H       
  32 H32            3.0774     1.9739    -1.2795 H       
  33 H33            1.5223     1.9601    -2.1469 H       
  34 H34            1.2966     3.1021     0.0379 H       
  35 H35            1.8912     1.6439     0.8670 H       
  36 H36           -1.8420     1.7626     1.0087 H       
  37 H37           -0.4385     1.4872     2.0683 H       
  38 H38            0.4827     3.6969     1.4223 H       
  39 H39           -0.9207     3.9723     0.3627 H       
  40 H40           -2.4322     3.8049     2.3213 H       
  41 H41           -1.0288     3.5295     3.3809 H       
  42 H42           -2.7325     4.2625     4.3316 H       
  43 H43           -3.9015     5.3716     6.1661 H       
  44 H44           -4.3724     6.8953     8.0576 H       
  45 H45           -4.3786     8.6141     8.5202 H       
  46 H46           -6.1872     7.8146     6.1883 H       
  47 H47           -8.0024     7.1619     7.8354 H       
  48 H48           -6.7920     7.2920     9.2208 H       
  49 H49           -6.4098     9.7355     8.6576 H       
  50 H50           -7.6203     9.6055     7.2722 H       
@<TRIPOS>BOND
   1    1    2 1
   2    1    6 1
   3    1   10 1
   4    2    3 1
   5    2   28 1
   6    2   29 1
   7    3    4 1
   8    3   30 1
   9    3   31 1
  10    4    5 1
  11    4    7 1
  12    4    9 1
  13    5    6 1
  14    5   32 1
  15    5   33 1
  16    6   34 1
  17    6   35 1
  18    7    8 3
  19   10   11 1
  20   10   36 1
  21   10   37 1
  22   11   12 1
  23   11   38 1
  24   11   39 1
  25   12   13 1
  26   12   40 1
  27   12   41 1
  28   13   20 1
  29   14   15 1
  30   14   18 1
  31   14   23 1
  32   15   16 2
  33   16   17 1
  34   17   18 ar
  35   17   19 ar
  36   18   22 ar
  37   19   20 ar
  38   19   27 1
  39   20   21 ar
  40   21   22 ar
  41   21   42 1
  42   22   43 1
  43   23   24 1
  44   23   44 1
  45   23   45 1
  46   24   25 1
  47   24   26 1
  48   24   46 1
  49   25   26 1
  50   25   47 1
  51   25   48 1
  52   26   49 1
  53   26   50 1

#	End of record

