#	Name: ASD01140195
#	Creating user name:	WinNT
#	Creation time:	15. 06. 2019 19:00

#	Modifying user name:	WinNT
#	Modification time:	15. 06. 2019 19:00

#	Program:	/corina/corina34_cracker 3.40 0067  02.08.2006

@<TRIPOS>MOLECULE
ASD01140195
  44   47    0    0    0
SMALL
NO_CHARGES


@<TRIPOS>ATOM
   1 C1             1.2543    -0.7091     1.0259 C.1     
   2 C2             1.1242     0.4518     0.9090 C.1     
   3 C3             0.9654     1.8678     0.7665 C.ar    
   4 C4             2.0850     2.6806     0.5704 C.ar    
   5 C5             1.9265     4.0400     0.4229 C.ar    
   6 C6             0.6597     4.6158     0.4668 C.ar    
   7 C7            -0.4673     3.8188     0.6849 C.ar    
   8 C8            -0.3023     2.4337     0.8174 C.ar    
   9 C9            -1.8247     4.3614     0.8084 C.2     
  10 N10           -2.3713     5.2877     0.1037 N.2     
  11 C11           -1.6583     5.9414    -0.9997 C.3     
  12 C12           -0.4405     6.6152    -0.4225 C.2     
  13 N13            0.5576     5.9934     0.2542 N.pl3   
  14 C14            1.4378     6.9495     0.6571 C.2     
  15 N15            1.0327     8.1067     0.2159 N.2     
  16 C16           -0.9113     8.9957    -1.1342 C.2     
  17 O17           -1.8856     8.7032    -1.8008 O.2     
  18 N18           -0.5458    10.2865    -1.0051 N.am    
  19 C19           -1.2475    11.3257    -1.7627 C.3     
  20 C20            0.5530    10.6505    -0.1071 C.3     
  21 C21           -2.6687     3.7697     1.8748 C.ar    
  22 C22           -3.9708     4.2284     2.0591 C.ar    
  23 C23           -4.7472     3.6661     3.0594 C.ar    
  24 C24           -4.1942     2.6635     3.8414 C.ar    
  25 C25           -2.8924     2.2563     3.6023 C.ar    
  26 N26           -2.1787     2.8039     2.6418 N.ar    
  27 C27           -0.1305     7.9390    -0.4678 C.2     
  28 H28            1.3707    -1.7474     1.1304 H       
  29 H29            3.0719     2.2435     0.5350 H       
  30 H30            2.7934     4.6662     0.2720 H       
  31 H31           -1.1660     1.8023     0.9646 H       
  32 H32           -1.3546     5.1970    -1.7359 H       
  33 H33           -2.3040     6.6839    -1.4686 H       
  34 H34            2.3265     6.7774     1.2461 H       
  35 H35           -2.3033    11.3226    -1.4919 H       
  36 H36           -0.8156    12.2991    -1.5301 H       
  37 H37           -1.1456    11.1287    -2.8299 H       
  38 H38            1.5027    10.5339    -0.6292 H       
  39 H39            0.4365    11.6874     0.2080 H       
  40 H40            0.5374    10.0009     0.7680 H       
  41 H41           -4.3694     5.0117     1.4315 H       
  42 H42           -5.7602     4.0013     3.2264 H       
  43 H43           -4.7729     2.2049     4.6295 H       
  44 H44           -2.4584     1.4757     4.2095 H       
@<TRIPOS>BOND
   1    1    2 3
   2    1   28 1
   3    2    3 1
   4    3    4 ar
   5    3    8 ar
   6    4    5 ar
   7    4   29 1
   8    5    6 ar
   9    5   30 1
  10    6    7 ar
  11    6   13 1
  12    7    8 ar
  13    7    9 1
  14    8   31 1
  15    9   10 2
  16    9   21 1
  17   10   11 1
  18   11   12 1
  19   11   32 1
  20   11   33 1
  21   12   13 1
  22   12   27 2
  23   13   14 1
  24   14   15 2
  25   14   34 1
  26   15   27 1
  27   16   17 2
  28   16   18 am
  29   16   27 1
  30   18   19 1
  31   18   20 1
  32   19   35 1
  33   19   36 1
  34   19   37 1
  35   20   38 1
  36   20   39 1
  37   20   40 1
  38   21   22 ar
  39   21   26 ar
  40   22   23 ar
  41   22   41 1
  42   23   24 ar
  43   23   42 1
  44   24   25 ar
  45   24   43 1
  46   25   26 ar
  47   25   44 1

#	End of record

