#	Name: ASD04910472
#	Creating user name:	WinNT
#	Creation time:	15. 06. 2019 20:55

#	Modifying user name:	WinNT
#	Modification time:	15. 06. 2019 20:55

#	Program:	/corina/corina34_cracker 3.40 0067  02.08.2006

@<TRIPOS>MOLECULE
ASD04910472
  64   66    0    0    0
SMALL
NO_CHARGES


@<TRIPOS>ATOM
   1 C1            -1.9156     0.1490     2.7399 C.2     
   2 C2            -1.6962    -1.3177     2.4723 C.3     
   3 C3            -0.1974    -1.5924     2.3344 C.3     
   4 O4            -0.9702     0.8978     2.8128 O.2     
   5 O5            -3.1616     0.6245     2.8918 O.3     
   6 C6             1.2666    -3.4948     1.9162 C.2     
   7 C7             1.4818    -4.9337     1.6537 C.ar    
   8 C8             2.7759    -5.4304     1.4896 C.ar    
   9 C9             2.9698    -6.7742     1.2453 C.ar    
  10 C10            1.8850    -7.6290     1.1625 C.ar    
  11 C11            0.5996    -7.1431     1.3242 C.ar    
  12 C12            0.3922    -5.8024     1.5747 C.ar    
  13 O13            2.2177    -2.7414     1.9895 O.2     
  14 N14            0.0158    -3.0183     2.0742 N.am    
  15 C15            2.1043    -9.0957     0.8944 C.3     
  16 C16            2.0157    -9.8732     2.2091 C.3     
  17 C17            2.3610   -11.3423     1.9571 C.3     
  18 C18            2.2725   -12.1199     3.2718 C.3     
  19 O19            1.1028    -9.5700    -0.0079 O.3     
  20 C20            1.4725   -10.5391    -0.8856 C.ar    
  21 C21            0.5316   -11.0903    -1.7452 C.ar    
  22 C22            0.9029   -12.0738    -2.6372 C.ar    
  23 C23            2.2262   -12.5148    -2.6758 C.ar    
  24 C24            3.1690   -11.9581    -1.8107 C.ar    
  25 C25            2.7913   -10.9716    -0.9248 C.ar    
  26 N26            3.7025   -14.4011    -3.5119 N.pl3   
  27 N27            3.7153   -15.2449    -4.6299 N.2     
  28 C28            2.6960   -14.9399    -5.3924 C.2     
  29 C29            1.9921   -13.8932    -4.7965 C.2     
  30 C30            2.6286   -13.5704    -3.6312 C.2     
  31 C31            2.3421   -15.6079    -6.6961 C.3     
  32 F32            3.2054   -16.6864    -6.9169 F       
  33 F33            1.0230   -16.0704    -6.6400 F       
  34 F34            2.4695   -14.6870    -7.7415 F       
  35 C35            4.6667   -14.4136    -2.4090 C.3     
  36 C36            5.8861   -13.5708    -2.7880 C.3     
  37 H37           -2.0980    -1.9022     3.3001 H       
  38 H38           -2.2036    -1.5986     1.5494 H       
  39 H39            0.2044    -1.0080     1.5066 H       
  40 H40            0.3099    -1.3116     3.2573 H       
  41 H41           -3.2522     1.5721     3.0618 H       
  42 H42            3.6234    -4.7641     1.5533 H       
  43 H43            3.9705    -7.1599     1.1181 H       
  44 H44           -0.2429    -7.8156     1.2584 H       
  45 H45           -0.6113    -5.4251     1.7052 H       
  46 H46           -0.7432    -3.6194     2.0157 H       
  47 H47            3.0899    -9.2408     0.4522 H       
  48 H48            2.7190    -9.4529     2.9280 H       
  49 H49            1.0033    -9.8010     2.6065 H       
  50 H50            1.6577   -11.7627     1.2382 H       
  51 H51            3.3734   -11.4146     1.5597 H       
  52 H52            2.9758   -11.6995     3.9906 H       
  53 H53            1.2600   -12.0476     3.6691 H       
  54 H54            2.5185   -13.1664     3.0922 H       
  55 H55           -0.4924   -10.7485    -1.7148 H       
  56 H56            0.1704   -12.5027    -3.3050 H       
  57 H57            4.1941   -12.2972    -1.8375 H       
  58 H58            3.5212   -10.5376    -0.2575 H       
  59 H59            1.1024   -13.4217    -5.1869 H       
  60 H60            4.2016   -13.9982    -1.5150 H       
  61 H61            4.9805   -15.4388    -2.2123 H       
  62 H62            6.6193   -13.6097    -1.9824 H       
  63 H63            6.3298   -13.9645    -3.7025 H       
  64 H64            5.5778   -12.5378    -2.9493 H       
@<TRIPOS>BOND
   1    1    2 1
   2    1    4 2
   3    1    5 1
   4    2    3 1
   5    2   37 1
   6    2   38 1
   7    3   14 1
   8    3   39 1
   9    3   40 1
  10    5   41 1
  11    6    7 1
  12    6   13 2
  13    6   14 am
  14    7    8 ar
  15    7   12 ar
  16    8    9 ar
  17    8   42 1
  18    9   10 ar
  19    9   43 1
  20   10   11 ar
  21   10   15 1
  22   11   12 ar
  23   11   44 1
  24   12   45 1
  25   14   46 1
  26   15   16 1
  27   15   19 1
  28   15   47 1
  29   16   17 1
  30   16   48 1
  31   16   49 1
  32   17   18 1
  33   17   50 1
  34   17   51 1
  35   18   52 1
  36   18   53 1
  37   18   54 1
  38   19   20 1
  39   20   21 ar
  40   20   25 ar
  41   21   22 ar
  42   21   55 1
  43   22   23 ar
  44   22   56 1
  45   23   24 ar
  46   23   30 1
  47   24   25 ar
  48   24   57 1
  49   25   58 1
  50   26   27 1
  51   26   30 1
  52   26   35 1
  53   27   28 2
  54   28   29 1
  55   28   31 1
  56   29   30 2
  57   29   59 1
  58   31   32 1
  59   31   33 1
  60   31   34 1
  61   35   36 1
  62   35   60 1
  63   35   61 1
  64   36   62 1
  65   36   63 1
  66   36   64 1

#	End of record

