#	Name: ASD01813274
#	Creating user name:	WinNT
#	Creation time:	15. 06. 2019 19:30

#	Modifying user name:	WinNT
#	Modification time:	15. 06. 2019 19:30

#	Program:	/corina/corina34_cracker 3.40 0067  02.08.2006

@<TRIPOS>MOLECULE
ASD01813274
  49   52    0    0    0
SMALL
NO_CHARGES


@<TRIPOS>ATOM
   1 O1            -0.0173     1.4248     0.0099 O.3     
   2 C2             0.0021    -0.0041     0.0020 C.3     
   3 H3             0.5123    -0.3556    -0.8948 H       
   4 C4             0.7421    -0.5109     1.2415 C.3     
   5 C5             0.7628    -2.0407     1.2331 C.3     
   6 C6            -0.6726    -2.5703     1.2440 C.3     
   7 C7            -1.4126    -2.0635     0.0045 C.3     
   8 C8            -1.4333    -0.5336     0.0129 C.3     
   9 H9            -1.9435    -0.1821     0.9097 H       
  10 N10           -2.1419    -0.0483    -1.1740 N.am    
  11 C11           -3.4850     0.0621    -1.1588 C.2     
  12 O12           -4.1091    -0.2413    -0.1594 O.2     
  13 C13           -4.1957     0.5488    -2.3492 C.2     
  14 C14           -3.6375     0.9192    -3.5382 C.2     
  15 N15           -4.6074     1.3113    -4.3971 N.pl3   
  16 C16           -4.3743     1.7746    -5.7673 C.3     
  17 C17           -4.2957     3.2794    -5.7822 C.ar    
  18 C18           -5.4427     4.0292    -5.9642 C.ar    
  19 C19           -5.3718     5.4093    -5.9781 C.ar    
  20 C20           -4.1514     6.0410    -5.8092 C.ar    
  21 F21           -4.0809     7.3901    -5.8222 F       
  22 C22           -3.0032     5.2890    -5.6266 C.ar    
  23 C23           -3.0773     3.9091    -5.6083 C.ar    
  24 C24           -5.8459     1.2120    -3.7996 C.ar    
  25 C25           -7.1415     1.4824    -4.2303 C.ar    
  26 C26           -8.1849     1.2649    -3.3477 C.ar    
  27 C27           -7.9174     0.7896    -2.0740 C.ar    
  28 N28           -6.6849     0.5399    -1.6842 N.ar    
  29 C29           -5.6517     0.7266    -2.4952 C.ar    
  30 H30            0.8606     1.8301     0.0037 H       
  31 H31            1.7647    -0.1336     1.2338 H       
  32 H32            0.2319    -0.1594     2.1383 H       
  33 H33            1.2730    -2.3923     0.3363 H       
  34 H34            1.2900    -2.4018     2.1162 H       
  35 H35           -0.6578    -3.6602     1.2380 H       
  36 H36           -1.1828    -2.2188     2.1408 H       
  37 H37           -0.9024    -2.4150    -0.8923 H       
  38 H38           -2.4352    -2.4408     0.0122 H       
  39 H39           -1.6443     0.1935    -1.9708 H       
  40 H40           -2.5807     0.9024    -3.7603 H       
  41 H41           -3.4374     1.3580    -6.1372 H       
  42 H42           -5.1947     1.4472    -6.4060 H       
  43 H43           -6.3946     3.5363    -6.0959 H       
  44 H44           -6.2680     5.9949    -6.1210 H       
  45 H45           -2.0507     5.7806    -5.4951 H       
  46 H46           -2.1825     3.3224    -5.4617 H       
  47 H47           -7.3277     1.8528    -5.2275 H       
  48 H48           -9.2023     1.4649    -3.6500 H       
  49 H49           -8.7347     0.6213    -1.3884 H       
@<TRIPOS>BOND
   1    1    2 1
   2    1   30 1
   3    2    3 1
   4    2    8 1
   5    2    4 1
   6    4    5 1
   7    4   31 1
   8    4   32 1
   9    5    6 1
  10    5   33 1
  11    5   34 1
  12    6    7 1
  13    6   35 1
  14    6   36 1
  15    7    8 1
  16    7   37 1
  17    7   38 1
  18    8    9 1
  19    8   10 1
  20   10   11 am
  21   10   39 1
  22   11   12 2
  23   11   13 1
  24   13   29 1
  25   13   14 2
  26   14   15 1
  27   14   40 1
  28   15   16 1
  29   15   24 1
  30   16   17 1
  31   16   41 1
  32   16   42 1
  33   17   23 ar
  34   17   18 ar
  35   18   19 ar
  36   18   43 1
  37   19   20 ar
  38   19   44 1
  39   20   21 1
  40   20   22 ar
  41   22   23 ar
  42   22   45 1
  43   23   46 1
  44   24   29 ar
  45   24   25 ar
  46   25   26 ar
  47   25   47 1
  48   26   27 ar
  49   26   48 1
  50   27   28 ar
  51   27   49 1
  52   28   29 ar

#	End of record

