#	Name: ASD00450058
#	Creating user name:	WinNT
#	Creation time:	15. 06. 2019 18:36

#	Modifying user name:	WinNT
#	Modification time:	15. 06. 2019 18:36

#	Program:	/corina/corina34_cracker 3.40 0067  02.08.2006

@<TRIPOS>MOLECULE
ASD00450058
  46   48    0    0    0
SMALL
NO_CHARGES


@<TRIPOS>ATOM
   1 C1            -0.7060     1.3814     0.5359 C.ar    
   2 C2            -0.8914    -0.0097     0.5264 C.ar    
   3 C3             0.1575    -0.8460     0.8684 C.ar    
   4 C4             1.3883    -0.3147     1.2197 C.ar    
   5 C5             1.5833     1.0560     1.2329 C.ar    
   6 C6             0.5458     1.9114     0.8936 C.ar    
   7 C7            -1.8117     2.2780     0.1685 C.2     
   8 O8            -2.5763     2.6830     1.0237 O.2     
   9 N9            -1.9782     2.6513    -1.1158 N.am    
  10 N10            0.7430     3.2866     0.9068 N.pl3   
  11 C11            1.7580     3.8402     1.6946 C.ar    
  12 C12            2.2748     5.0939     1.3856 C.ar    
  13 C13            2.2476     3.1417     2.7902 C.ar    
  14 C14            3.2495     3.6909     3.5667 C.ar    
  15 C15            3.7658     4.9357     3.2545 C.ar    
  16 C16            3.2776     5.6377     2.1671 C.ar    
  17 F17            2.4049    -1.1401     1.5522 F       
  18 F18            1.7981     5.7792     0.3233 F       
  19 I19            5.2851     5.7632     4.4361 I       
  20 O20           -2.0948    -0.5333     0.1834 O.3     
  21 C21           -2.2004    -1.8852     0.0944 C.ar    
  22 C22           -2.4484    -2.6384     1.2323 C.ar    
  23 C23           -2.5556    -4.0195     1.1374 C.ar    
  24 C24           -2.0658    -2.5127    -1.1361 C.ar    
  25 C25           -2.1733    -3.8876    -1.2285 C.ar    
  26 N26           -2.8059    -4.7820     2.2811 N.am    
  27 C27           -2.4141    -4.6421    -0.0968 C.ar    
  28 S28           -3.7214    -6.1578     2.1750 S.o2    
  29 N29           -2.8300    -7.2768     1.3411 N.am    
  30 O30           -3.8527    -6.6556     3.4995 O.2     
  31 O31           -4.8342    -5.8368     1.3516 O.2     
  32 Br32          -2.6396    -1.7863     2.9096 Br      
  33 H33            0.0160    -1.9166     0.8617 H       
  34 H34            2.5461     1.4602     1.5085 H       
  35 H35           -1.3685     2.3285    -1.7977 H       
  36 H36           -2.7077     3.2429    -1.3582 H       
  37 H37            0.1770     3.8628     0.3697 H       
  38 H38            1.8453     2.1699     3.0353 H       
  39 H39            3.6300     3.1477     4.4190 H       
  40 H40            3.6799     6.6112     1.9284 H       
  41 H41           -1.8771    -1.9258    -2.0229 H       
  42 H42           -2.0685    -4.3730    -2.1875 H       
  43 H43           -2.4433    -4.5056     3.1373 H       
  44 H44           -2.4969    -5.7163    -0.1719 H       
  45 H45           -1.9425    -7.0498     1.0221 H       
  46 H46           -3.1953    -8.1593     1.1716 H       
@<TRIPOS>BOND
   1    1    2 ar
   2    1    6 ar
   3    1    7 1
   4    2    3 ar
   5    2   20 1
   6    3    4 ar
   7    3   33 1
   8    4    5 ar
   9    4   17 1
  10    5    6 ar
  11    5   34 1
  12    6   10 1
  13    7    8 2
  14    7    9 am
  15    9   35 1
  16    9   36 1
  17   10   11 1
  18   10   37 1
  19   11   13 ar
  20   11   12 ar
  21   12   16 ar
  22   12   18 1
  23   13   14 ar
  24   13   38 1
  25   14   15 ar
  26   14   39 1
  27   15   16 ar
  28   15   19 1
  29   16   40 1
  30   20   21 1
  31   21   22 ar
  32   21   24 ar
  33   22   23 ar
  34   22   32 1
  35   23   27 ar
  36   23   26 1
  37   24   25 ar
  38   24   41 1
  39   25   27 ar
  40   25   42 1
  41   26   28 am
  42   26   43 1
  43   27   44 1
  44   28   29 am
  45   28   30 2
  46   28   31 2
  47   29   45 1
  48   29   46 1

#	End of record

