#	Name: ASD01813634
#	Creating user name:	WinNT
#	Creation time:	15. 06. 2019 19:30

#	Modifying user name:	WinNT
#	Modification time:	15. 06. 2019 19:30

#	Program:	/corina/corina34_cracker 3.40 0067  02.08.2006

@<TRIPOS>MOLECULE
ASD01813634
  40   43    0    0    0
SMALL
NO_CHARGES


@<TRIPOS>ATOM
   1 C1             0.0982     1.4755     0.3570 C.ar    
   2 C2             0.0801     0.0883     0.3492 C.ar    
   3 C3             1.2502    -0.6306     0.2182 C.ar    
   4 C4             2.4673     0.0383     0.0920 C.ar    
   5 C5             2.4809     1.4430     0.1004 C.ar    
   6 C6             1.2894     2.1560     0.2336 C.ar    
   7 N7             3.6443    -0.6677    -0.0386 N.pl3   
   8 C8             4.8374    -0.0728    -0.1613 C.2     
   9 C9             4.9775     1.3006    -0.1662 C.2     
  10 C10            3.7747     2.1383    -0.0339 C.2     
  11 O11            3.8450     3.3548    -0.0329 O.2     
  12 C12            6.3053     1.9158    -0.3021 C.2     
  13 O13            6.4291     3.2581    -0.3055 O.3     
  14 O14            7.2920     1.2141    -0.4115 O.2     
  15 C15            3.5871    -2.1316    -0.0427 C.3     
  16 C16            3.4445    -2.6248    -1.4595 C.ar    
  17 C17            4.5598    -2.7690    -2.2629 C.ar    
  18 N18            4.4496    -3.1992    -3.5037 N.ar    
  19 C19            3.2699    -3.5104    -4.0300 C.ar    
  20 C20            2.1024    -3.3885    -3.2737 C.ar    
  21 C21            2.1919    -2.9438    -1.9675 C.ar    
  22 F22            1.2171    -1.9812     0.2127 F       
  23 C23            3.1929    -3.9884    -5.4251 C.2     
  24 S24            1.7141    -4.4383    -6.2645 S.3     
  25 C25            2.6215    -4.8244    -7.7207 C.2     
  26 C26            3.9241    -4.6065    -7.5125 C.2     
  27 C27            4.2450    -4.1419    -6.2550 C.2     
  28 H28           -0.8266     2.0245     0.4558 H       
  29 H29           -0.8600    -0.4343     0.4470 H       
  30 H30            1.3008     3.2359     0.2397 H       
  31 H31            5.7197    -0.6879    -0.2594 H       
  32 H32            7.3226     3.6164    -0.3974 H       
  33 H33            4.5033    -2.5323     0.3911 H       
  34 H34            2.7314    -2.4634     0.5453 H       
  35 H35            5.5353    -2.5254    -1.8685 H       
  36 H36            1.1436    -3.6412    -3.7018 H       
  37 H37            1.3064    -2.8394    -1.3582 H       
  38 H38            2.1913    -5.1837    -8.6438 H       
  39 H39            4.6696    -4.7780    -8.2749 H       
  40 H40            5.2598    -3.9251    -5.9555 H       
@<TRIPOS>BOND
   1    1    2 ar
   2    1    6 ar
   3    1   28 1
   4    2    3 ar
   5    2   29 1
   6    3    4 ar
   7    3   22 1
   8    4    5 ar
   9    4    7 1
  10    5    6 ar
  11    5   10 1
  12    6   30 1
  13    7    8 1
  14    7   15 1
  15    8    9 2
  16    8   31 1
  17    9   10 1
  18    9   12 1
  19   10   11 2
  20   12   13 1
  21   12   14 2
  22   13   32 1
  23   15   16 1
  24   15   33 1
  25   15   34 1
  26   16   17 ar
  27   16   21 ar
  28   17   18 ar
  29   17   35 1
  30   18   19 ar
  31   19   20 ar
  32   19   23 1
  33   20   21 ar
  34   20   36 1
  35   21   37 1
  36   23   24 1
  37   23   27 2
  38   24   25 1
  39   25   26 2
  40   25   38 1
  41   26   27 1
  42   26   39 1
  43   27   40 1

#	End of record

