#	Name: ASD01911527
#	Creating user name:	WinNT
#	Creation time:	15. 06. 2019 19:57

#	Modifying user name:	WinNT
#	Modification time:	15. 06. 2019 19:57

#	Program:	/corina/corina34_cracker 3.40 0067  02.08.2006

@<TRIPOS>MOLECULE
ASD01911527
  34   35    0    0    0
SMALL
NO_CHARGES


@<TRIPOS>ATOM
   1 N1            -0.0169     1.3965     0.0097 N.2     
   2 N2             0.0021    -0.0041     0.0020 N.pl3   
   3 C3             1.2284     1.8226     0.0001 C.2     
   4 C4             2.0722     0.6950    -0.0140 C.2     
   5 C5             1.2909    -0.4070    -0.0125 C.2     
   6 C6             1.7727    -1.8348    -0.0247 C.3     
   7 C7             1.6661     3.2408     0.0031 C.ar    
   8 C8            -1.1724    -0.8798     0.0093 C.3     
   9 C9            -1.5891    -1.1729    -1.4090 C.2     
  10 O10           -2.6495    -1.9606    -1.6477 O.3     
  11 O11           -0.9688    -0.6990    -2.3312 O.2     
  12 C12            0.7209     4.2636     0.0177 C.ar    
  13 C13            3.0241     3.5532    -0.0028 C.ar    
  14 C14            3.4270     4.8732     0.0005 C.ar    
  15 C15            2.4860     5.8866     0.0101 C.ar    
  16 C16            1.1345     5.5829     0.0209 C.ar    
  17 C17            2.0692    -2.2853     1.4071 C.3     
  18 C18            2.9324     7.3260     0.0142 C.3     
  19 F19            0.2196     6.5769     0.0298 F       
  20 H20            3.1521     0.7089    -0.0242 H       
  21 H21            1.0021    -2.4746    -0.4547 H       
  22 H22            2.6806    -1.9068    -0.6236 H       
  23 H23           -0.9266    -1.8130     0.5160 H       
  24 H24           -1.9905    -0.3861     0.5337 H       
  25 H25           -2.8785    -2.1198    -2.5736 H       
  26 H26           -0.3327     4.0267     0.0261 H       
  27 H27            3.7605     2.7632    -0.0096 H       
  28 H28            4.4796     5.1152    -0.0041 H       
  29 H29            2.4177    -3.3181     1.3982 H       
  30 H30            2.8398    -1.6455     1.8371 H       
  31 H31            1.1613    -2.2134     2.0060 H       
  32 H32            3.0345     7.6776    -1.0125 H       
  33 H33            2.1927     7.9343     0.5347 H       
  34 H34            3.8928     7.4071     0.5232 H       
@<TRIPOS>BOND
   1    1    2 1
   2    1    3 2
   3    2    8 1
   4    2    5 1
   5    3    4 1
   6    3    7 1
   7    4    5 2
   8    4   20 1
   9    5    6 1
  10    6   17 1
  11    6   21 1
  12    6   22 1
  13    7   12 ar
  14    7   13 ar
  15    8    9 1
  16    8   23 1
  17    8   24 1
  18    9   10 1
  19    9   11 2
  20   10   25 1
  21   12   16 ar
  22   12   26 1
  23   13   14 ar
  24   13   27 1
  25   14   15 ar
  26   14   28 1
  27   15   16 ar
  28   15   18 1
  29   16   19 1
  30   17   29 1
  31   17   30 1
  32   17   31 1
  33   18   32 1
  34   18   33 1
  35   18   34 1

#	End of record

