#	Name: ASD00110032
#	Creating user name:	WinNT
#	Creation time:	15. 06. 2019 18:30

#	Modifying user name:	WinNT
#	Modification time:	15. 06. 2019 18:30

#	Program:	/corina/corina34_cracker 3.40 0067  02.08.2006

@<TRIPOS>MOLECULE
ASD00110032
  70   72    0    0    0
SMALL
NO_CHARGES


@<TRIPOS>ATOM
   1 C1            -0.0187     1.5270     0.0104 C.3     
   2 C2            -1.4335    -0.5293     0.0744 C.3     
   3 C3            -1.4169    -2.0361     0.0863 C.2     
   4 N4            -1.2604    -2.7174    -1.0660 N.am    
   5 O5            -1.5445    -2.6357     1.1328 O.2     
   6 C6            -1.2442    -4.1823    -1.0544 C.3     
   7 C7             0.1704    -4.6743    -0.7422 C.3     
   8 O8             1.0513    -4.2949    -1.8015 O.3     
   9 C9            -1.6762    -4.7079    -2.4248 C.3     
  10 O10           -0.7107    -4.3270    -3.4070 O.3     
  11 C11            1.4162     2.0578    -0.0004 C.3     
  12 C12            1.3948     3.5832    -0.1177 C.3     
  13 N13           -2.0748    -0.0373     1.3005 N.3     
  14 C14           -2.1488     1.4293     1.3093 C.3     
  15 C15           -0.7345     2.0129     1.2737 C.3     
  16 C16            0.0021    -0.0041     0.0020 C.3     
  17 C17           -3.0178    -4.1246    -2.7865 C.ar    
  18 C18           -5.4791    -3.0542    -3.4496 C.ar    
  19 C19           -4.3222    -2.3492    -3.7242 C.ar    
  20 C20           -3.0915    -2.8843    -3.3924 C.ar    
  21 C21           -4.1744    -4.8323    -2.5176 C.ar    
  22 C22           -5.4050    -4.2972    -2.8494 C.ar    
  23 C23            2.8081     4.1061    -0.1284 C.ar    
  24 C24            3.4812     4.2544    -1.3267 C.ar    
  25 C25            4.7776     4.7340    -1.3365 C.ar    
  26 C26            5.4009     5.0657    -0.1481 C.ar    
  27 C27            4.7275     4.9182     1.0502 C.ar    
  28 C28            3.4296     4.4427     1.0596 C.ar    
  29 C29            6.8146     5.5876    -0.1587 C.3     
  30 C30            6.8762     6.8766    -0.9806 C.3     
  31 C31            7.2627     5.8754     1.2756 C.3     
  32 C32            7.7401     4.5407    -0.7818 C.3     
  33 H33           -0.5477     1.8889    -0.8712 H       
  34 H34           -1.9924    -0.1790    -0.7934 H       
  35 H35           -1.1584    -2.2379    -1.9029 H       
  36 H36           -1.9324    -4.5472    -0.2919 H       
  37 H37            0.5123    -4.2285     0.1919 H       
  38 H38            0.1645    -5.7600    -0.6458 H       
  39 H39            1.9676    -4.5747    -1.6703 H       
  40 H40           -1.7499    -5.7949    -2.3903 H       
  41 H41           -0.5925    -3.3710    -3.4924 H       
  42 H42            1.9165     1.7716     0.9247 H       
  43 H43            1.9534     1.6356    -0.8497 H       
  44 H44            0.8945     3.8694    -1.0429 H       
  45 H45            0.8576     4.0054     0.7315 H       
  46 H46           -2.9896    -0.4462     1.4192 H       
  47 H47           -2.7044     1.7701     0.4357 H       
  48 H48           -2.6563     1.7619     2.2148 H       
  49 H49           -0.1827     1.6836     2.1542 H       
  50 H50           -0.7902     3.1015     1.2645 H       
  51 H51            0.4727    -0.3566    -0.9158 H       
  52 H52            0.5655    -0.3651     0.8624 H       
  53 H53           -6.4406    -2.6362    -3.7088 H       
  54 H54           -4.3801    -1.3781    -4.1932 H       
  55 H55           -2.1877    -2.3331    -3.6062 H       
  56 H56           -4.1165    -5.8035    -2.0486 H       
  57 H57           -6.3089    -4.8480    -2.6348 H       
  58 H58            2.9942     3.9953    -2.2552 H       
  59 H59            5.3037     4.8493    -2.2727 H       
  60 H60            5.2146     5.1770     1.9787 H       
  61 H61            2.9022     4.3310     1.9954 H       
  62 H62            6.2168     7.6225    -0.5367 H       
  63 H63            7.8987     7.2541    -0.9883 H       
  64 H64            6.5569     6.6716    -2.0024 H       
  65 H65            7.2188     4.9571     1.8612 H       
  66 H66            8.2852     6.2529     1.2680 H       
  67 H67            6.6034     6.6213     1.7195 H       
  68 H68            7.4208     4.3356    -1.8036 H       
  69 H69            8.7626     4.9182    -0.7895 H       
  70 H70            7.6962     3.6224    -0.1962 H       
@<TRIPOS>BOND
   1    1   16 1
   2    1   11 1
   3    1   15 1
   4    1   33 1
   5    2    3 1
   6    2   13 1
   7    2   16 1
   8    2   34 1
   9    3    4 am
  10    3    5 2
  11    4    6 1
  12    4   35 1
  13    6    7 1
  14    6    9 1
  15    6   36 1
  16    7    8 1
  17    7   37 1
  18    7   38 1
  19    8   39 1
  20    9   10 1
  21    9   17 1
  22    9   40 1
  23   10   41 1
  24   11   12 1
  25   11   42 1
  26   11   43 1
  27   12   23 1
  28   12   44 1
  29   12   45 1
  30   13   14 1
  31   13   46 1
  32   14   15 1
  33   14   47 1
  34   14   48 1
  35   15   49 1
  36   15   50 1
  37   16   51 1
  38   16   52 1
  39   17   21 ar
  40   17   20 ar
  41   18   19 ar
  42   18   22 ar
  43   18   53 1
  44   19   20 ar
  45   19   54 1
  46   20   55 1
  47   21   22 ar
  48   21   56 1
  49   22   57 1
  50   23   24 ar
  51   23   28 ar
  52   24   25 ar
  53   24   58 1
  54   25   26 ar
  55   25   59 1
  56   26   27 ar
  57   26   29 1
  58   27   28 ar
  59   27   60 1
  60   28   61 1
  61   29   30 1
  62   29   31 1
  63   29   32 1
  64   30   62 1
  65   30   63 1
  66   30   64 1
  67   31   65 1
  68   31   66 1
  69   31   67 1
  70   32   68 1
  71   32   69 1
  72   32   70 1

#	End of record

