#	Name: ASD03570007
#	Creating user name:	WinNT
#	Creation time:	15. 06. 2019 20:43

#	Modifying user name:	WinNT
#	Modification time:	15. 06. 2019 20:43

#	Program:	/corina/corina34_cracker 3.40 0067  02.08.2006

@<TRIPOS>MOLECULE
ASD03570007
  28   29    0    0    0
SMALL
NO_CHARGES


@<TRIPOS>ATOM
   1 C1            -0.0168     1.3869     0.0097 C.ar    
   2 C2             0.0021    -0.0041     0.0020 C.ar    
   3 C3             1.1986    -0.6906    -0.0126 C.ar    
   4 C4             2.4000     0.0117    -0.0203 C.ar    
   5 C5             2.3797     1.4204    -0.0130 C.ar    
   6 C6             1.1501     2.0976     0.0023 C.ar    
   7 N7             3.7177    -0.3808    -0.0346 N.pl3   
   8 C8             4.5176     0.7481    -0.0364 C.2     
   9 C9             3.7259     1.8540    -0.0234 C.2     
  10 C10            4.1984     3.2850    -0.0211 C.3     
  11 C11            4.3450     3.7760    -1.4627 C.3     
  12 F12           -1.1623    -0.6891     0.0094 F       
  13 F13            1.1207     3.4483     0.0090 F       
  14 C14            5.9850     0.7517    -0.0496 C.2     
  15 O15            6.5904     1.8062    -0.0496 O.2     
  16 O16            6.6621    -0.4146    -0.0619 O.3     
  17 C17            4.8175     5.2070    -1.4604 C.2     
  18 O18            5.0166     5.7758    -0.4131 O.2     
  19 O19            5.0172     5.8498    -2.6217 O.3     
  20 H20           -0.9619     1.9095     0.0170 H       
  21 H21            1.2030    -1.7706    -0.0177 H       
  22 H22            4.0342    -1.2976    -0.0419 H       
  23 H23            3.4720     3.9066     0.5024 H       
  24 H24            5.1621     3.3485     0.4842 H       
  25 H25            5.0714     3.1544    -1.9862 H       
  26 H26            3.3812     3.7124    -1.9680 H       
  27 H27            7.6276    -0.3616    -0.0704 H       
  28 H28            5.3204     6.7665    -2.5696 H       
@<TRIPOS>BOND
   1    1    2 ar
   2    1    6 ar
   3    1   20 1
   4    2    3 ar
   5    2   12 1
   6    3    4 ar
   7    3   21 1
   8    4    5 ar
   9    4    7 1
  10    5    6 ar
  11    5    9 1
  12    6   13 1
  13    7    8 1
  14    7   22 1
  15    8    9 2
  16    8   14 1
  17    9   10 1
  18   10   11 1
  19   10   23 1
  20   10   24 1
  21   11   17 1
  22   11   25 1
  23   11   26 1
  24   14   15 2
  25   14   16 1
  26   16   27 1
  27   17   18 2
  28   17   19 1
  29   19   28 1

#	End of record

