#	Name: ASD00172055
#	Creating user name:	WinNT
#	Creation time:	15. 06. 2019 18:33

#	Modifying user name:	WinNT
#	Modification time:	15. 06. 2019 18:33

#	Program:	/corina/corina34_cracker 3.40 0067  02.08.2006

@<TRIPOS>MOLECULE
ASD00172055
  37   39    0    0    0
SMALL
NO_CHARGES


@<TRIPOS>ATOM
   1 C1            -0.0148     1.3610    -0.0053 C.ar    
   2 C2             0.0086    -0.0219     0.0126 C.ar    
   3 C3            -1.1766    -0.7329     0.0280 C.ar    
   4 C4            -2.3853    -0.0621     0.0256 C.ar    
   5 C5            -2.4092     1.3200     0.0078 C.ar    
   6 C6            -1.2245     2.0319    -0.0023 C.ar    
   7 C7            -3.6773    -0.8377     0.0419 C.3     
   8 C8            -4.1073    -1.0819     1.4898 C.3     
   9 C9            -5.4064    -1.8615     1.5360 C.2     
  10 N10           -6.2919    -1.0575     2.1571 N.am    
  11 C11           -5.7385     0.1096     2.5060 C.2     
  12 N12           -4.4431     0.1902     2.1523 N.am    
  13 O13           -6.3392     0.9978     3.0782 O.2     
  14 H14           -3.8465     0.9398     2.3042 H       
  15 C15           -3.0092    -1.8195     2.2586 C.3     
  16 O16           -5.6073    -2.9762     1.1036 O.2     
  17 C17           -7.6281    -1.4013     2.4060 C.ar    
  18 C18           -8.4325    -0.5611     3.1636 C.ar    
  19 C19           -9.7498    -0.9022     3.4078 C.ar    
  20 C20          -10.2664    -2.0804     2.8981 C.ar    
  21 C21           -9.4665    -2.9195     2.1427 C.ar    
  22 C22           -8.1504    -2.5796     1.8907 C.ar    
  23 Cl23         -10.1181    -4.3968     1.5050 Cl      
  24 Cl24         -10.7564     0.1481     4.3550 Cl      
  25 Br25           1.6064     2.3342    -0.0257 Br      
  26 H26            0.9529    -0.5461     0.0141 H       
  27 H27           -1.1584    -1.8126     0.0415 H       
  28 H28           -3.3538     1.8437     0.0059 H       
  29 H29           -1.2433     3.1116    -0.0162 H       
  30 H30           -4.4495    -0.2682    -0.4753 H       
  31 H31           -3.5333    -1.7941    -0.4606 H       
  32 H32           -2.0987    -1.2202     2.2562 H       
  33 H33           -3.3331    -1.9843     3.2862 H       
  34 H34           -2.8134    -2.7796     1.7809 H       
  35 H35           -8.0295     0.3582     3.5621 H       
  36 H36          -11.2955    -2.3456     3.0905 H       
  37 H37           -7.5265    -3.2347     1.3007 H       
@<TRIPOS>BOND
   1    1    2 ar
   2    1   25 1
   3    1    6 ar
   4    2    3 ar
   5    2   26 1
   6    3    4 ar
   7    3   27 1
   8    4    5 ar
   9    4    7 1
  10    5    6 ar
  11    5   28 1
  12    6   29 1
  13    7    8 1
  14    7   30 1
  15    7   31 1
  16    8    9 1
  17    8   15 1
  18    8   12 1
  19    9   10 am
  20    9   16 2
  21   10   11 am
  22   10   17 1
  23   11   12 am
  24   11   13 2
  25   12   14 1
  26   15   32 1
  27   15   33 1
  28   15   34 1
  29   17   18 ar
  30   17   22 ar
  31   18   19 ar
  32   18   35 1
  33   19   20 ar
  34   19   24 1
  35   20   21 ar
  36   20   36 1
  37   21   22 ar
  38   21   23 1
  39   22   37 1

#	End of record

