#	Name: ASD01915382
#	Creating user name:	WinNT
#	Creation time:	15. 06. 2019 20:05

#	Modifying user name:	WinNT
#	Modification time:	15. 06. 2019 20:05

#	Program:	/corina/corina34_cracker 3.40 0067  02.08.2006

@<TRIPOS>MOLECULE
ASD01915382
  45   48    0    0    0
SMALL
NO_CHARGES


@<TRIPOS>ATOM
   1 C1             0.0012     1.3469    -0.0644 C.ar    
   2 C2             0.0383    -0.0431    -0.0914 C.ar    
   3 N3             1.1987    -0.6882    -0.0946 N.ar    
   4 C4             2.3496    -0.0459    -0.0727 C.ar    
   5 C5             2.3924     1.3338    -0.0454 C.ar    
   6 C6             1.1990     2.0530    -0.0409 C.ar    
   7 C7             3.7158     2.0543    -0.0201 C.3     
   8 N8             4.7781     1.1337     0.4107 N.am    
   9 C9             5.7625     1.0046    -0.6791 C.3     
  10 C10            5.6095     2.3045    -1.5077 C.3     
  11 C11            4.0771     2.5383    -1.4402 C.3     
  12 C12            4.8418     0.5115     1.6046 C.2     
  13 O13            4.0269     0.7709     2.4702 O.2     
  14 C14            5.8935    -0.4785     1.8604 C.2     
  15 C15           -1.2302    -0.8120    -0.1162 C.ar    
  16 C16           -1.2031    -2.2046    -0.1432 C.ar    
  17 C17           -2.3875    -2.9154    -0.1663 C.ar    
  18 C18           -3.5990    -2.2459    -0.1625 C.ar    
  19 C19           -3.6306    -0.8633    -0.1357 C.ar    
  20 C20           -2.4533    -0.1438    -0.1067 C.ar    
  21 Cl21          -2.3564    -4.6508    -0.2005 Cl      
  22 O22            1.2055     3.4103    -0.0148 O.3     
  23 C23            6.1449    -1.0905     3.0448 C.2     
  24 N24            7.1431    -1.9373     3.0099 N.2     
  25 C25            7.7567    -2.0875     1.8803 C.2     
  26 S26            7.0519    -1.0917     0.6827 S.3     
  27 C27           -0.0647     4.0651    -0.0122 C.3     
  28 H28           -0.9436     1.8701    -0.0663 H       
  29 H29            3.2724    -0.6070    -0.0759 H       
  30 H30            3.6624     2.9035     0.6611 H       
  31 H31            6.7711     0.9306    -0.2724 H       
  32 H32            5.5356     0.1338    -1.2941 H       
  33 H33            6.1513     3.1292    -1.0445 H       
  34 H34            5.9366     2.1529    -2.5363 H       
  35 H35            3.5624     1.9418    -2.1935 H       
  36 H36            3.8428     3.5963    -1.5583 H       
  37 H37           -0.2581    -2.7275    -0.1465 H       
  38 H38           -4.5228    -2.8050    -0.1810 H       
  39 H39           -4.5785    -0.3459    -0.1329 H       
  40 H40           -2.4796     0.9357    -0.0858 H       
  41 H41            5.5718    -0.8957     3.9392 H       
  42 H42            8.5925    -2.7516     1.7163 H       
  43 H43           -0.6160     3.7922    -0.9120 H       
  44 H44           -0.6300     3.7579     0.8676 H       
  45 H45            0.0833     5.1448     0.0098 H       
@<TRIPOS>BOND
   1    1    2 ar
   2    1    6 ar
   3    1   28 1
   4    2    3 ar
   5    2   15 1
   6    3    4 ar
   7    4    5 ar
   8    4   29 1
   9    5    6 ar
  10    5    7 1
  11    6   22 1
  12    7    8 1
  13    7   11 1
  14    7   30 1
  15    8    9 1
  16    8   12 am
  17    9   10 1
  18    9   31 1
  19    9   32 1
  20   10   11 1
  21   10   33 1
  22   10   34 1
  23   11   35 1
  24   11   36 1
  25   12   13 2
  26   12   14 1
  27   14   23 2
  28   14   26 1
  29   15   16 ar
  30   15   20 ar
  31   16   17 ar
  32   16   37 1
  33   17   18 ar
  34   17   21 1
  35   18   19 ar
  36   18   38 1
  37   19   20 ar
  38   19   39 1
  39   20   40 1
  40   22   27 1
  41   23   24 1
  42   23   41 1
  43   24   25 2
  44   25   26 1
  45   25   42 1
  46   27   43 1
  47   27   44 1
  48   27   45 1

#	End of record

