#	Name: ASD01816333
#	Creating user name:	WinNT
#	Creation time:	15. 06. 2019 19:35

#	Modifying user name:	WinNT
#	Modification time:	15. 06. 2019 19:35

#	Program:	/corina/corina34_cracker 3.40 0067  02.08.2006

@<TRIPOS>MOLECULE
ASD01816333
  53   58    0    0    0
SMALL
NO_CHARGES


@<TRIPOS>ATOM
   1 C1            -0.0167     1.3814     0.0096 C.ar    
   2 C2             0.0021    -0.0041     0.0020 C.ar    
   3 C3             1.1982    -0.6909    -0.0131 C.ar    
   4 C4             2.4015     0.0060    -0.0209 C.ar    
   5 C5             2.3790     1.4107    -0.0132 C.ar    
   6 C6             1.1662     2.0917     0.0022 C.ar    
   7 N7             3.6050    -0.6770    -0.0356 N.pl3   
   8 C8             4.7969    -0.0582    -0.0432 C.2     
   9 C9             4.8997     1.3105    -0.0373 C.2     
  10 C10            3.6669     2.1303    -0.0217 C.2     
  11 C11            5.9970     2.2735    -0.0428 C.2     
  12 N12            5.4243     3.4965    -0.0317 N.am    
  13 N13            4.0321     3.3801    -0.0191 N.2     
  14 O14            7.1903     2.0237    -0.0549 O.2     
  15 C15            3.5777    -2.1417    -0.0427 C.3     
  16 C16            3.5550    -2.6368    -1.4659 C.ar    
  17 C17            4.7427    -2.8858    -2.1288 C.ar    
  18 C18            4.7251    -3.3392    -3.4333 C.ar    
  19 C19            3.5133    -3.5454    -4.0788 C.ar    
  20 C20            2.3225    -3.2949    -3.4104 C.ar    
  21 C21            2.3464    -2.8466    -2.1042 C.ar    
  22 N22            3.4922    -4.0051    -5.4030 N.pl3   
  23 C23            2.3872    -4.2461    -6.1443 C.2     
  24 C24            2.7935    -4.6751    -7.3616 C.2     
  25 C25            4.1926    -4.6974    -7.3656 C.2     
  26 N26            4.6122    -4.2904    -6.1946 N.2     
  27 C27            6.0995     4.6629    -0.0317 C.2     
  28 O28            7.3156     4.6616    -0.0423 O.2     
  29 C29            5.3661     5.9366    -0.0190 C.2     
  30 C30            5.9111     7.2101    -0.0173 C.2     
  31 C31            4.8186     8.0797    -0.0035 C.2     
  32 N32            3.7285     7.3554     0.0024 N.2     
  33 N33            4.0097     6.1022    -0.0123 N.pl3   
  34 C34            4.8833     9.5853     0.0040 C.3     
  35 H35           -0.9602     1.9069     0.0170 H       
  36 H36           -0.9289    -0.5515     0.0083 H       
  37 H37            1.2002    -1.7709    -0.0186 H       
  38 H38            1.1504     3.1716     0.0077 H       
  39 H39            5.6982    -0.6532    -0.0540 H       
  40 H40            4.4655    -2.5241     0.4609 H       
  41 H41            2.6859    -2.4910     0.4778 H       
  42 H42            5.6850    -2.7253    -1.6262 H       
  43 H43            5.6530    -3.5329    -3.9509 H       
  44 H44            1.3783    -3.4540    -3.9101 H       
  45 H45            1.4204    -2.6516    -1.5838 H       
  46 H46            1.3641    -4.1195    -5.8223 H       
  47 H47            2.1514    -4.9515    -8.1848 H       
  48 H48            4.8185    -4.9948    -8.1939 H       
  49 H49            6.9582     7.4743    -0.0248 H       
  50 H50            3.3586     5.3831    -0.0120 H       
  51 H51            4.8902     9.9537    -1.0219 H       
  52 H52            4.0141     9.9837     0.5273 H       
  53 H53            5.7924     9.9074     0.5118 H       
@<TRIPOS>BOND
   1    1    2 ar
   2    1    6 ar
   3    1   35 1
   4    2    3 ar
   5    2   36 1
   6    3    4 ar
   7    3   37 1
   8    4    5 ar
   9    4    7 1
  10    5    6 ar
  11    5   10 1
  12    6   38 1
  13    7    8 1
  14    7   15 1
  15    8    9 2
  16    8   39 1
  17    9   10 1
  18    9   11 1
  19   10   13 2
  20   11   12 am
  21   11   14 2
  22   12   13 1
  23   12   27 am
  24   15   16 1
  25   15   40 1
  26   15   41 1
  27   16   17 ar
  28   16   21 ar
  29   17   18 ar
  30   17   42 1
  31   18   19 ar
  32   18   43 1
  33   19   20 ar
  34   19   22 1
  35   20   21 ar
  36   20   44 1
  37   21   45 1
  38   22   23 1
  39   22   26 1
  40   23   24 2
  41   23   46 1
  42   24   25 1
  43   24   47 1
  44   25   26 2
  45   25   48 1
  46   27   28 2
  47   27   29 1
  48   29   30 2
  49   29   33 1
  50   30   31 1
  51   30   49 1
  52   31   32 2
  53   31   34 1
  54   32   33 1
  55   33   50 1
  56   34   51 1
  57   34   52 1
  58   34   53 1

#	End of record

