#	Name: ASD01940349
#	Creating user name:	WinNT
#	Creation time:	15. 06. 2019 20:12

#	Modifying user name:	WinNT
#	Modification time:	15. 06. 2019 20:12

#	Program:	/corina/corina34_cracker 3.40 0067  02.08.2006

@<TRIPOS>MOLECULE
ASD01940349
  47   48    0    0    0
SMALL
NO_CHARGES


@<TRIPOS>ATOM
   1 C1            -0.0015     0.2972     2.8482 C.ar    
   2 C2             0.0525    -0.5405     1.7493 C.ar    
   3 C3             1.2179    -1.2479     1.4736 C.ar    
   4 C4             2.3228    -1.1099     2.3033 C.ar    
   5 C5             2.2619    -0.2714     3.3992 C.ar    
   6 C6             1.1019     0.4313     3.6717 C.ar    
   7 N7             1.2767    -2.0969     0.3632 N.pl3   
   8 C8             2.4637    -2.7084     0.0260 C.2     
   9 C9             2.7130    -4.0789     0.0597 C.2     
  10 C10            4.0365    -4.2762    -0.3576 C.2     
  11 C11            4.5694    -3.0294    -0.6374 C.2     
  12 N12            3.5876    -2.0791    -0.4013 N.pl3   
  13 C13            3.7397    -0.6331    -0.5804 C.3     
  14 C14            5.8767    -2.7722    -1.0878 C.2     
  15 O15            6.2324    -1.6295    -1.3003 O.2     
  16 C16            6.8364    -3.9132    -1.3070 C.3     
  17 C17            1.7561    -5.1327     0.4623 C.2     
  18 N18            2.1069    -6.4769     0.3397 N.pl3   
  19 C19            0.5565    -4.7969     0.9432 C.2     
  20 O20            1.1909    -7.4857     0.7251 O.3     
  21 C21            1.6816    -8.8157     0.5455 C.3     
  22 C22            0.6148    -9.8175     0.9919 C.3     
  23 C23            1.1402   -11.2416     0.7997 C.3     
  24 O24            0.1438   -12.1772     1.2166 O.3     
  25 F25           -1.0251    -0.6720     0.9452 F       
  26 I26            1.0159     1.7016     5.3355 I       
  27 H27           -0.9042     0.8506     3.0611 H       
  28 H28            3.2290    -1.6582     2.0920 H       
  29 H29            3.1213    -0.1642     4.0444 H       
  30 H30            0.4814    -2.2548    -0.1692 H       
  31 H31            4.5459    -5.2246    -0.4447 H       
  32 H32            3.9990    -0.1741     0.3737 H       
  33 H33            4.5307    -0.4378    -1.3045 H       
  34 H34            2.8025    -0.2114    -0.9435 H       
  35 H35            6.3427    -4.8546    -1.0661 H       
  36 H36            7.1539    -3.9258    -2.3496 H       
  37 H37            7.7069    -3.7844    -0.6637 H       
  38 H38            2.9783    -6.7209    -0.0096 H       
  39 H39           -0.1191    -5.5636     1.2928 H       
  40 H40            0.2618    -3.7587     0.9826 H       
  41 H41            1.9148    -8.9780    -0.5068 H       
  42 H42            2.5827    -8.9543     1.1429 H       
  43 H43            0.3816    -9.6552     2.0442 H       
  44 H44           -0.2863    -9.6790     0.3945 H       
  45 H45            1.3734   -11.4039    -0.2526 H       
  46 H46            2.0413   -11.3801     1.3971 H       
  47 H47            0.4090   -13.1023     1.1225 H       
@<TRIPOS>BOND
   1    1    2 ar
   2    1    6 ar
   3    1   27 1
   4    2    3 ar
   5    2   25 1
   6    3    4 ar
   7    3    7 1
   8    4    5 ar
   9    4   28 1
  10    5    6 ar
  11    5   29 1
  12    6   26 1
  13    7    8 1
  14    7   30 1
  15    8    9 2
  16    8   12 1
  17    9   10 1
  18    9   17 1
  19   10   11 2
  20   10   31 1
  21   11   12 1
  22   11   14 1
  23   12   13 1
  24   13   32 1
  25   13   33 1
  26   13   34 1
  27   14   15 2
  28   14   16 1
  29   16   35 1
  30   16   36 1
  31   16   37 1
  32   17   18 1
  33   17   19 2
  34   18   20 1
  35   18   38 1
  36   19   39 1
  37   19   40 1
  38   20   21 1
  39   21   22 1
  40   21   41 1
  41   21   42 1
  42   22   23 1
  43   22   43 1
  44   22   44 1
  45   23   24 1
  46   23   45 1
  47   23   46 1
  48   24   47 1

#	End of record

