#	Name: ASD01811556
#	Creating user name:	WinNT
#	Creation time:	15. 06. 2019 19:26

#	Modifying user name:	WinNT
#	Modification time:	15. 06. 2019 19:26

#	Program:	/corina/corina34_cracker 3.40 0067  02.08.2006

@<TRIPOS>MOLECULE
ASD01811556
  52   54    0    0    0
SMALL
NO_CHARGES


@<TRIPOS>ATOM
   1 C1            -0.1182     1.4620     0.2152 C.2     
   2 C2            -0.0471    -0.0095     0.1023 C.ar    
   3 C3             1.1207    -0.6206    -0.3619 C.ar    
   4 C4             1.1882    -1.9952    -0.4683 C.ar    
   5 C5             0.1040    -2.7754    -0.1169 C.ar    
   6 C6            -1.0687    -2.1778     0.3488 C.ar    
   7 C7            -1.1424    -0.7916     0.4639 C.ar    
   8 O8             0.8658     2.1368    -0.0121 O.2     
   9 O9            -1.2759     2.0554     0.5648 O.3     
  10 C10            0.1869    -4.2753    -0.2369 C.3     
  11 C11            2.3086     0.2227    -0.7476 C.3     
  12 C12           -5.6854    -3.7011     1.7409 C.3     
  13 C13           -4.2358    -3.6497     1.3263 C.2     
  14 C14           -3.4510    -4.7406     1.1715 C.2     
  15 C15           -3.9166    -6.1601     1.3834 C.3     
  16 C16           -5.2090    -6.1394     2.2086 C.3     
  17 N17           -6.1107    -5.1110     1.6687 N.am    
  18 C18           -2.2287    -3.0154     0.7247 C.2     
  19 N19           -3.4760    -2.5570     1.0437 N.pl3   
  20 N20           -2.2351    -4.3292     0.8082 N.2     
  21 C21           -7.2957    -5.4484     1.1224 C.2     
  22 O22           -7.6307    -6.6153     1.0709 O.2     
  23 O23           -8.1082    -4.4926     0.6336 O.3     
  24 C24           -9.3687    -4.9290     0.0599 C.3     
  25 C25          -10.1882    -5.6598     1.1253 C.3     
  26 C26          -10.1504    -3.7120    -0.4390 C.3     
  27 C27           -9.0957    -5.8749    -1.1113 C.3     
  28 H28            2.0927    -2.4627    -0.8282 H       
  29 H29           -2.0458    -0.3248     0.8278 H       
  30 H30           -1.2736     3.0205     0.6257 H       
  31 H31            0.4462    -4.7035     0.7314 H       
  32 H32           -0.7768    -4.6677    -0.5614 H       
  33 H33            0.9514    -4.5397    -0.9675 H       
  34 H34            2.8807     0.4745     0.1454 H       
  35 H35            2.9407    -0.3346    -1.4389 H       
  36 H36            1.9635     1.1382    -1.2282 H       
  37 H37           -5.7928    -3.3329     2.7612 H       
  38 H38           -6.2871    -3.0968     1.0621 H       
  39 H39           -4.1069    -6.6299     0.4184 H       
  40 H40           -3.1501    -6.7198     1.9193 H       
  41 H41           -5.6931    -7.1144     2.1518 H       
  42 H42           -4.9741    -5.9085     3.2476 H       
  43 H43           -3.7643    -1.6310     1.0642 H       
  44 H44          -10.3827    -4.9859     1.9597 H       
  45 H45          -11.1344    -5.9873     0.6947 H       
  46 H46           -9.6312    -6.5268     1.4807 H       
  47 H47           -9.5666    -3.1914    -1.1981 H       
  48 H48          -11.0966    -4.0396    -0.8697 H       
  49 H49          -10.3449    -3.0381     0.3954 H       
  50 H50           -8.5387    -6.7418    -0.7559 H       
  51 H51          -10.0419    -6.2024    -1.5420 H       
  52 H52           -8.5118    -5.3542    -1.8704 H       
@<TRIPOS>BOND
   1    1    2 1
   2    1    8 2
   3    1    9 1
   4    2    3 ar
   5    2    7 ar
   6    3    4 ar
   7    3   11 1
   8    4    5 ar
   9    4   28 1
  10    5    6 ar
  11    5   10 1
  12    6    7 ar
  13    6   18 1
  14    7   29 1
  15    9   30 1
  16   10   31 1
  17   10   32 1
  18   10   33 1
  19   11   34 1
  20   11   35 1
  21   11   36 1
  22   12   13 1
  23   12   17 1
  24   12   37 1
  25   12   38 1
  26   13   14 2
  27   13   19 1
  28   14   15 1
  29   14   20 1
  30   15   16 1
  31   15   39 1
  32   15   40 1
  33   16   17 1
  34   16   41 1
  35   16   42 1
  36   17   21 am
  37   18   19 1
  38   18   20 2
  39   19   43 1
  40   21   22 2
  41   21   23 1
  42   23   24 1
  43   24   25 1
  44   24   27 1
  45   24   26 1
  46   25   44 1
  47   25   45 1
  48   25   46 1
  49   26   47 1
  50   26   48 1
  51   26   49 1
  52   27   50 1
  53   27   51 1
  54   27   52 1

#	End of record

