#	Name: ASD01918223
#	Creating user name:	WinNT
#	Creation time:	15. 06. 2019 20:11

#	Modifying user name:	WinNT
#	Modification time:	15. 06. 2019 20:11

#	Program:	/corina/corina34_cracker 3.40 0067  02.08.2006

@<TRIPOS>MOLECULE
ASD01918223
  40   43    0    0    0
SMALL
NO_CHARGES


@<TRIPOS>ATOM
   1 C1             0.0527     1.3230    -0.0356 C.ar    
   2 C2             0.1945    -0.0670    -0.2761 C.ar    
   3 C3             1.4741    -0.6581    -0.1392 C.ar    
   4 N4             2.5233     0.0932     0.2122 N.ar    
   5 C5             2.4066     1.3800     0.4381 C.ar    
   6 C6             1.1876     2.0376     0.3250 C.ar    
   7 C7            -1.2614     1.9922    -0.1706 C.ar    
   8 C8            -2.2535     1.7865     0.7883 C.ar    
   9 C9            -3.4758     2.4124     0.6576 C.ar    
  10 C10           -3.7189     3.2436    -0.4230 C.ar    
  11 C11           -2.7379     3.4510    -1.3780 C.ar    
  12 C12           -1.5098     2.8351    -1.2540 C.ar    
  13 C13           -0.9016    -0.8586    -0.6433 C.ar    
  14 C14           -0.7266    -2.1912    -0.8658 C.ar    
  15 C15            0.5318    -2.7782    -0.7323 C.ar    
  16 C16            1.6187    -2.0354    -0.3767 C.ar    
  17 S17            1.0825     3.7684     0.6378 S.o2    
  18 C18            0.0917     3.9785     2.0796 C.ar    
  19 O19            2.3929     4.1936     0.9860 O.2     
  20 O20            0.3450     4.3270    -0.4407 O.2     
  21 C21           -1.2526     4.2772     1.9562 C.ar    
  22 C22            0.6579     3.8389     3.3327 C.ar    
  23 C23           -0.1176     4.0029     4.4655 C.ar    
  24 C24           -1.4621     4.3070     4.3454 C.ar    
  25 C25           -2.0314     4.4419     3.0880 C.ar    
  26 F26           -3.3450     4.7342     2.9682 F       
  27 Cl27          -5.2595     4.0280    -0.5812 Cl      
  28 F28           -2.2205     4.4674     5.4519 F       
  29 F29            0.6759    -4.1022    -0.9592 F       
  30 H30            3.2831     1.9448     0.7194 H       
  31 H31           -2.0651     1.1382     1.6312 H       
  32 H32           -4.2447     2.2536     1.3992 H       
  33 H33           -2.9330     4.0999    -2.2190 H       
  34 H34           -0.7437     3.0013    -1.9969 H       
  35 H35           -1.8804    -0.4147    -0.7492 H       
  36 H36           -1.5723    -2.8005    -1.1485 H       
  37 H37            2.5867    -2.5039    -0.2776 H       
  38 H38           -1.6947     4.3823     0.9765 H       
  39 H39            1.7072     3.6012     3.4271 H       
  40 H40            0.3260     3.8932     5.4441 H       
@<TRIPOS>BOND
   1    1    2 ar
   2    1    6 ar
   3    1    7 1
   4    2    3 ar
   5    2   13 ar
   6    3    4 ar
   7    3   16 ar
   8    4    5 ar
   9    5    6 ar
  10    5   30 1
  11    6   17 1
  12    7    8 ar
  13    7   12 ar
  14    8    9 ar
  15    8   31 1
  16    9   10 ar
  17    9   32 1
  18   10   11 ar
  19   10   27 1
  20   11   12 ar
  21   11   33 1
  22   12   34 1
  23   13   14 ar
  24   13   35 1
  25   14   15 ar
  26   14   36 1
  27   15   16 ar
  28   15   29 1
  29   16   37 1
  30   17   18 1
  31   17   19 2
  32   17   20 2
  33   18   22 ar
  34   18   21 ar
  35   21   25 ar
  36   21   38 1
  37   22   23 ar
  38   22   39 1
  39   23   24 ar
  40   23   40 1
  41   24   25 ar
  42   24   28 1
  43   25   26 1

#	End of record

