#	Name: ASD05490091
#	Creating user name:	WinNT
#	Creation time:	15. 06. 2019 21:01

#	Modifying user name:	WinNT
#	Modification time:	15. 06. 2019 21:01

#	Program:	/corina/corina34_cracker 3.40 0067  02.08.2006

@<TRIPOS>MOLECULE
ASD05490091
  65   69    0    0    0
SMALL
NO_CHARGES


@<TRIPOS>ATOM
   1 N1            -0.0178     1.4608     0.0101 N.am    
   2 O2             4.5863     2.8161    -0.0262 O.3     
   3 N3             2.8511     4.3368    -0.0011 N.ar    
   4 C4             1.5540     4.6376     0.0125 C.ar    
   5 C5             3.2565     3.0770    -0.0125 C.ar    
   6 N6             2.4054     2.0644    -0.0098 N.ar    
   7 C7             1.0946     2.2826     0.0039 C.ar    
   8 C8             0.6266     3.5971     0.0154 C.ar    
   9 N9             1.1342     5.9598     0.0241 N.pl3   
  10 C10           -1.1223     2.2312     0.0189 C.2     
  11 N11           -0.7663     3.5310     0.0284 N.am    
  12 C12            5.4681     3.9405    -0.0273 C.3     
  13 C13            6.9178     3.4518    -0.0435 C.3     
  14 O14            7.1762     2.7676    -1.2712 O.3     
  15 C15            8.5098     2.2679    -1.3886 C.3     
  16 O16           -2.2665     1.8171     0.0260 O.2     
  17 C17            0.0021    -0.0041     0.0020 C.3     
  18 C18            0.0225    -0.5140     1.4200 C.ar    
  19 C19           -1.1519    -0.5673     2.1506 C.ar    
  20 C20           -1.1383    -1.0345     3.4508 C.ar    
  21 C21            0.0600    -1.4519     4.0253 C.ar    
  22 C22            1.2391    -1.3957     3.2845 C.ar    
  23 C23            1.2137    -0.9324     1.9848 C.ar    
  24 C24            0.0812    -1.9542     5.4215 C.ar    
  25 C25            1.2798    -2.3717     5.9963 C.ar    
  26 C26           -1.0966    -2.0046     6.1643 C.ar    
  27 C27           -1.0712    -2.4727     7.4625 C.ar    
  28 C28            0.1205    -2.8913     8.0262 C.ar    
  29 C29            1.2936    -2.8380     7.2953 C.ar    
  30 N30           -0.0856    -4.8527     9.4458 N.3     
  31 C31            0.1628    -5.4248    10.7818 C.3     
  32 C32           -1.1277    -6.1517    11.2150 C.3     
  33 C33           -1.8387    -6.4355     9.8657 C.3     
  34 C34           -1.4731    -5.1719     9.0475 C.3     
  35 Cl35          -2.6440    -0.0460     1.4325 Cl      
  36 C36            0.1419    -3.4014     9.4441 C.3     
  37 H37            1.7881     6.6762     0.0223 H       
  38 H38            0.1868     6.1678     0.0340 H       
  39 H39           -1.3727     4.2880     0.0359 H       
  40 H40            5.2799     4.5490    -0.9119 H       
  41 H41            5.2961     4.5380     0.8679 H       
  42 H42            7.5900     4.3052     0.0452 H       
  43 H43            7.0814     2.7720     0.7927 H       
  44 H44            8.7064     1.5636    -0.5803 H       
  45 H45            8.6252     1.7622    -2.3473 H       
  46 H46            9.2150     3.0968    -1.3278 H       
  47 H47           -0.8878    -0.3767    -0.5053 H       
  48 H48            0.8920    -0.3525    -0.5222 H       
  49 H49           -2.0548    -1.0756     4.0206 H       
  50 H50            2.1708    -1.7179     3.7257 H       
  51 H51            2.1271    -0.8890     1.4102 H       
  52 H52            2.1962    -2.3309     5.4264 H       
  53 H53           -2.0276    -1.6776     5.7252 H       
  54 H54           -1.9835    -2.5118     8.0393 H       
  55 H55            2.2213    -3.1664     7.7402 H       
  56 H56            0.9894    -6.1338    10.7338 H       
  57 H57            0.3950    -4.6285    11.4889 H       
  58 H58           -0.8913    -7.0831    11.7294 H       
  59 H59           -1.7402    -5.5069    11.8452 H       
  60 H60           -1.4396    -7.3342     9.3954 H       
  61 H61           -2.9174    -6.5140    10.0016 H       
  62 H62           -2.1402    -4.3485     9.3026 H       
  63 H63           -1.5220    -5.3841     7.9795 H       
  64 H64            1.1111    -3.1850     9.8935 H       
  65 H65           -0.6430    -2.9099    10.0189 H       
@<TRIPOS>BOND
   1    1   17 1
   2    1    7 1
   3    1   10 am
   4    2   12 1
   5    2    5 1
   6    3    4 ar
   7    3    5 ar
   8    4    9 1
   9    4    8 ar
  10    5    6 ar
  11    6    7 ar
  12    7    8 ar
  13    8   11 1
  14    9   37 1
  15    9   38 1
  16   10   11 am
  17   10   16 2
  18   11   39 1
  19   12   13 1
  20   12   40 1
  21   12   41 1
  22   13   14 1
  23   13   42 1
  24   13   43 1
  25   14   15 1
  26   15   44 1
  27   15   45 1
  28   15   46 1
  29   17   18 1
  30   17   47 1
  31   17   48 1
  32   18   19 ar
  33   18   23 ar
  34   19   20 ar
  35   19   35 1
  36   20   21 ar
  37   20   49 1
  38   21   22 ar
  39   21   24 1
  40   22   23 ar
  41   22   50 1
  42   23   51 1
  43   24   25 ar
  44   24   26 ar
  45   25   29 ar
  46   25   52 1
  47   26   27 ar
  48   26   53 1
  49   27   28 ar
  50   27   54 1
  51   28   29 ar
  52   28   36 1
  53   29   55 1
  54   30   31 1
  55   30   34 1
  56   30   36 1
  57   31   32 1
  58   31   56 1
  59   31   57 1
  60   32   33 1
  61   32   58 1
  62   32   59 1
  63   33   34 1
  64   33   60 1
  65   33   61 1
  66   34   62 1
  67   34   63 1
  68   36   64 1
  69   36   65 1

#	End of record

