#	Name: ASD07930129
#	Creating user name:	WinNT
#	Creation time:	15. 06. 2019 21:11

#	Modifying user name:	WinNT
#	Modification time:	15. 06. 2019 21:11

#	Program:	/corina/corina34_cracker 3.40 0067  02.08.2006

@<TRIPOS>MOLECULE
ASD07930129
  63   67    0    0    0
SMALL
NO_CHARGES


@<TRIPOS>ATOM
   1 C1             0.6592     1.1821    -0.6278 C.2     
   2 C2             0.3033    -0.2185    -0.3098 C.2     
   3 N3             1.8772     1.4351    -1.2172 N.am    
   4 N4             1.2992    -1.1276    -0.1812 N.am    
   5 C5             2.6908    -0.6774    -0.3279 C.3     
   6 C6             2.7644     0.3012    -1.5094 C.3     
   7 C7            -0.2063     2.1939    -0.3461 C.2     
   8 C8             0.1269     3.5212    -0.6435 C.2     
   9 C9             1.3353     3.7990    -1.2216 C.2     
  10 C10            2.2468     2.6917    -1.5201 C.2     
  11 O11           -0.8586    -0.5464    -0.1665 O.2     
  12 O12            3.3293     2.9075    -2.0379 O.2     
  13 C13            2.7086     5.8269    -0.9741 C.2     
  14 N14            2.7267     7.0148    -1.5143 N.2     
  15 C15            1.7396     7.1075    -2.4180 C.2     
  16 C16            1.0804     5.9337    -2.4429 C.2     
  17 N17            1.6914     5.1155    -1.5275 N.pl3   
  18 C18            1.4228     8.3168    -3.2595 C.3     
  19 C19            0.9951    -2.5331     0.0982 C.3     
  20 C20            0.2856    -3.1511    -1.1083 C.3     
  21 C21            0.0865    -2.6240     1.3259 C.3     
  22 O22           -1.0317    -2.6078    -1.2160 O.3     
  23 C23           -5.7208    -3.0721    -0.6867 C.3     
  24 C24           -5.4192    -2.1690    -1.9015 C.3     
  25 C25           -3.9354    -1.8047    -1.6827 C.3     
  26 C26           -3.3621    -2.9481    -0.8734 C.ar    
  27 C27           -2.0420    -3.3228    -0.6539 C.ar    
  28 C28           -1.7533    -4.4240     0.1363 C.ar    
  29 C29           -2.7806    -5.1507     0.7069 C.ar    
  30 C30           -4.0946    -4.7781     0.4887 C.ar    
  31 C31           -4.3872    -3.6760    -0.3014 C.ar    
  32 C32           -3.2130    -1.6908    -3.0266 C.3     
  33 F33           -3.9304    -0.8366    -3.8709 F       
  34 F34           -1.9285    -1.1749    -2.8233 F       
  35 F35           -3.1193    -2.9569    -3.6145 F       
  36 C36           -3.8201    -0.4928    -0.9039 C.3     
  37 F37           -5.0974    -5.4903     1.0477 F       
  38 H38            3.0111    -0.1746     0.5846 H       
  39 H39            3.3346    -1.5352    -0.5222 H       
  40 H40            2.4366    -0.1974    -2.4216 H       
  41 H41            3.7879     0.6561    -1.6304 H       
  42 H42           -1.1592     1.9711     0.1107 H       
  43 H43           -0.5649     4.3194    -0.4184 H       
  44 H44            3.3905     5.4678    -0.2175 H       
  45 H45            0.2331     5.6844    -3.0645 H       
  46 H46            1.9828     8.2665    -4.1933 H       
  47 H47            0.3549     8.3385    -3.4770 H       
  48 H48            1.7014     9.2202    -2.7169 H       
  49 H49            1.9216    -3.0739     0.2911 H       
  50 H50            0.8471    -2.9252    -2.0149 H       
  51 H51            0.2236    -4.2316    -0.9791 H       
  52 H52           -0.1289    -3.6705     1.5417 H       
  53 H53            0.5866    -2.1718     2.1823 H       
  54 H54           -0.8455    -2.0945     1.1281 H       
  55 H55           -6.1191    -2.4786     0.1362 H       
  56 H56           -6.4251    -3.8564    -0.9641 H       
  57 H57           -5.5501    -2.7177    -2.8342 H       
  58 H58           -6.0440    -1.2760    -1.8851 H       
  59 H59           -0.7268    -4.7139     0.3056 H       
  60 H60           -2.5576    -6.0094     1.3228 H       
  61 H61           -4.1917    -0.6385     0.1103 H       
  62 H62           -2.7758    -0.1826    -0.8672 H       
  63 H63           -4.4106     0.2774    -1.4001 H       
@<TRIPOS>BOND
   1    1    2 1
   2    1    3 1
   3    1    7 2
   4    2    4 am
   5    2   11 2
   6    3    6 1
   7    3   10 am
   8    4    5 1
   9    4   19 1
  10    5    6 1
  11    5   38 1
  12    5   39 1
  13    6   40 1
  14    6   41 1
  15    7    8 1
  16    7   42 1
  17    8    9 2
  18    8   43 1
  19    9   10 1
  20    9   17 1
  21   10   12 2
  22   13   14 2
  23   13   17 1
  24   13   44 1
  25   14   15 1
  26   15   16 2
  27   15   18 1
  28   16   17 1
  29   16   45 1
  30   18   46 1
  31   18   47 1
  32   18   48 1
  33   19   20 1
  34   19   21 1
  35   19   49 1
  36   20   22 1
  37   20   50 1
  38   20   51 1
  39   21   52 1
  40   21   53 1
  41   21   54 1
  42   22   27 1
  43   23   24 1
  44   23   31 1
  45   23   55 1
  46   23   56 1
  47   24   25 1
  48   24   57 1
  49   24   58 1
  50   25   26 1
  51   25   32 1
  52   25   36 1
  53   26   27 ar
  54   26   31 ar
  55   27   28 ar
  56   28   29 ar
  57   28   59 1
  58   29   30 ar
  59   29   60 1
  60   30   31 ar
  61   30   37 1
  62   32   33 1
  63   32   34 1
  64   32   35 1
  65   36   61 1
  66   36   62 1
  67   36   63 1

#	End of record

