#	Name: ASD01150805
#	Creating user name:	WinNT
#	Creation time:	15. 06. 2019 19:05

#	Modifying user name:	WinNT
#	Modification time:	15. 06. 2019 19:05

#	Program:	/corina/corina34_cracker 3.40 0067  02.08.2006

@<TRIPOS>MOLECULE
ASD01150805
  54   55    0    0    0
SMALL
NO_CHARGES


@<TRIPOS>ATOM
   1 N1             0.1211     1.3755     0.0864 N.3     
   2 C2            -0.0191    -0.0758    -0.0878 C.3     
   3 C3             0.6960    -0.5085    -1.3698 C.3     
   4 C4             2.1761    -0.1275    -1.2762 C.3     
   5 C5             2.2929     1.3819    -1.0465 C.3     
   6 C6             1.5315     1.7598     0.2260 C.3     
   7 C7             0.5703    -2.0009    -1.5368 C.2     
   8 O8            -0.0320    -2.6549    -0.7119 O.2     
   9 N9             1.1272    -2.6090    -2.6029 N.am    
  10 C10           -0.6689     1.8470     1.2317 C.3     
  11 C11           -0.3643     5.4686     0.6563 C.ar    
  12 N12           -0.5906     4.1833     0.4712 N.ar    
  13 C13           -0.4072     3.3146     1.4523 C.ar    
  14 C14            0.0284     3.7728     2.6859 C.ar    
  15 C15            0.2555     5.1309     2.8420 C.ar    
  16 N16            0.0503     5.9400     1.8150 N.ar    
  17 C17            0.7292     5.6791     4.1634 C.3     
  18 S18           -2.4331     1.5912     0.8957 S.3     
  19 C19           -2.7557     0.5871     3.4195 C.3     
  20 C20           -2.8478     0.1739     1.9492 C.3     
  21 C21           -4.2714    -0.2930     1.6389 C.3     
  22 C22           -4.3332    -0.8228     0.2049 C.3     
  23 C23           -5.7568    -1.2896    -0.1054 C.3     
  24 C24           -5.8185    -1.8194    -1.5395 C.3     
  25 H25            0.4239    -0.5886     0.7660 H       
  26 H26           -1.0761    -0.3329    -0.1571 H       
  27 H27            0.2444    -0.0066    -2.2255 H       
  28 H28            2.6372    -0.6593    -0.4440 H       
  29 H29            2.6804    -0.3947    -2.2048 H       
  30 H30            3.3429     1.6531    -0.9364 H       
  31 H31            1.8664     1.9135    -1.8972 H       
  32 H32            1.6007     2.8359     0.3847 H       
  33 H33            1.9672     1.2384     1.0783 H       
  34 H34            1.6089    -2.0860    -3.2627 H       
  35 H35            1.0463    -3.5696    -2.7104 H       
  36 H36           -0.3843     1.2890     2.1237 H       
  37 H37           -0.5186     6.1530    -0.1647 H       
  38 H38            0.1868     3.0878     3.5058 H       
  39 H39            1.8190     5.6822     4.1858 H       
  40 H40            0.3604     6.6972     4.2876 H       
  41 H41            0.3510     5.0543     4.9725 H       
  42 H42           -3.5124     1.3421     3.6328 H       
  43 H43           -2.9229    -0.2841     4.0529 H       
  44 H44           -1.7661     0.9976     3.6202 H       
  45 H45           -2.1484    -0.6395     1.7559 H       
  46 H46           -4.5528    -1.0860     2.3317 H       
  47 H47           -4.9602     0.5449     1.7466 H       
  48 H48           -4.0517    -0.0297    -0.4879 H       
  49 H49           -3.6444    -1.6607     0.0971 H       
  50 H50           -6.0382    -2.0827     0.5873 H       
  51 H51           -6.4455    -0.4517     0.0023 H       
  52 H52           -6.8327    -2.1520    -1.7605 H       
  53 H53           -5.5371    -1.0264    -2.2322 H       
  54 H54           -5.1298    -2.6573    -1.6472 H       
@<TRIPOS>BOND
   1    1    2 1
   2    1    6 1
   3    1   10 1
   4    2    3 1
   5    2   25 1
   6    2   26 1
   7    3    4 1
   8    3    7 1
   9    3   27 1
  10    4    5 1
  11    4   28 1
  12    4   29 1
  13    5    6 1
  14    5   30 1
  15    5   31 1
  16    6   32 1
  17    6   33 1
  18    7    8 2
  19    7    9 am
  20    9   34 1
  21    9   35 1
  22   10   13 1
  23   10   18 1
  24   10   36 1
  25   11   12 ar
  26   11   16 ar
  27   11   37 1
  28   12   13 ar
  29   13   14 ar
  30   14   15 ar
  31   14   38 1
  32   15   16 ar
  33   15   17 1
  34   17   39 1
  35   17   40 1
  36   17   41 1
  37   18   20 1
  38   19   20 1
  39   19   42 1
  40   19   43 1
  41   19   44 1
  42   20   21 1
  43   20   45 1
  44   21   22 1
  45   21   46 1
  46   21   47 1
  47   22   23 1
  48   22   48 1
  49   22   49 1
  50   23   24 1
  51   23   50 1
  52   23   51 1
  53   24   52 1
  54   24   53 1
  55   24   54 1

#	End of record

