#	Name: ASD01913801
#	Creating user name:	WinNT
#	Creation time:	15. 06. 2019 20:02

#	Modifying user name:	WinNT
#	Modification time:	15. 06. 2019 20:02

#	Program:	/corina/corina34_cracker 3.40 0067  02.08.2006

@<TRIPOS>MOLECULE
ASD01913801
  41   43    0    0    0
SMALL
NO_CHARGES


@<TRIPOS>ATOM
   1 C1            -0.0056     1.3610     0.1964 C.ar    
   2 C2            -0.0014     0.0017    -0.0631 C.ar    
   3 C3             1.1884    -0.6574    -0.3179 C.ar    
   4 C4             2.3798     0.0374    -0.3153 C.ar    
   5 C5             2.3834     1.4103    -0.0545 C.ar    
   6 C6             1.1780     2.0689     0.2024 C.ar    
   7 C7             3.6165     2.1384    -0.0495 C.1     
   8 C8             4.6274     2.7353    -0.0455 C.1     
   9 C9             5.8604     3.4635    -0.0405 C.ar    
  10 C10            5.8724     4.8419     0.2204 C.ar    
  11 C11            8.2483     4.7810    -0.0487 C.ar    
  12 N12            8.2051     3.4786    -0.2858 N.ar    
  13 C13            7.0699     2.8112    -0.2898 C.ar    
  14 C14            7.0860     5.4998     0.2141 C.ar    
  15 N15            9.4756     5.4396    -0.0561 N.am    
  16 C16            9.6468     6.7686    -0.0506 C.2     
  17 O17           10.9293     7.1489    -0.0592 O.3     
  18 C18           11.7855     5.9701    -0.0723 C.3     
  19 C19           10.7951     4.7897    -0.0648 C.3     
  20 C20           12.6459     5.9461    -1.3373 C.3     
  21 C21           12.6666     5.9331     1.1780 C.3     
  22 C22           10.9886     3.9338     1.1886 C.3     
  23 O23            8.7218     7.5563    -0.0389 O.2     
  24 H24           -0.9384     1.8695     0.3904 H       
  25 H25           -0.9313    -0.5475    -0.0665 H       
  26 H26            1.1840    -1.7185    -0.5189 H       
  27 H27            3.3076    -0.4784    -0.5139 H       
  28 H28            1.1732     3.1299     0.4044 H       
  29 H29            4.9549     5.3752     0.4210 H       
  30 H30            7.0743     1.7494    -0.4872 H       
  31 H31            7.1328     6.5607     0.4105 H       
  32 H32           10.9128     4.1853    -0.9642 H       
  33 H33           13.2901     6.8252    -1.3553 H       
  34 H34           13.2599     5.0456    -1.3421 H       
  35 H35           12.0006     5.9505    -2.2157 H       
  36 H36           12.0358     5.9284     2.0669 H       
  37 H37           13.2805     5.0326     1.1633 H       
  38 H38           13.3110     6.8120     1.1944 H       
  39 H39           10.8177     4.5442     2.0753 H       
  40 H40           10.2803     3.1054     1.1758 H       
  41 H41           12.0056     3.5420     1.2076 H       
@<TRIPOS>BOND
   1    1    2 ar
   2    1    6 ar
   3    1   24 1
   4    2    3 ar
   5    2   25 1
   6    3    4 ar
   7    3   26 1
   8    4    5 ar
   9    4   27 1
  10    5    6 ar
  11    5    7 1
  12    6   28 1
  13    7    8 3
  14    8    9 1
  15    9   10 ar
  16    9   13 ar
  17   10   14 ar
  18   10   29 1
  19   11   12 ar
  20   11   15 1
  21   11   14 ar
  22   12   13 ar
  23   13   30 1
  24   14   31 1
  25   15   16 am
  26   15   19 1
  27   16   17 1
  28   16   23 2
  29   17   18 1
  30   18   19 1
  31   18   20 1
  32   18   21 1
  33   19   22 1
  34   19   32 1
  35   20   33 1
  36   20   34 1
  37   20   35 1
  38   21   36 1
  39   21   37 1
  40   21   38 1
  41   22   39 1
  42   22   40 1
  43   22   41 1

#	End of record

