#	Name: ASD04880378
#	Creating user name:	WinNT
#	Creation time:	15. 06. 2019 20:53

#	Modifying user name:	WinNT
#	Modification time:	15. 06. 2019 20:53

#	Program:	/corina/corina34_cracker 3.40 0067  02.08.2006

@<TRIPOS>MOLECULE
ASD04880378
  40   43    0    0    0
SMALL
NO_CHARGES


@<TRIPOS>ATOM
   1 C1            -0.0053     1.3684     0.3047 C.ar    
   2 C2             0.0101    -0.0227     0.2705 C.ar    
   3 C3            -1.1734    -0.7250     0.2227 C.ar    
   4 C4            -2.3914    -0.0388     0.2085 C.ar    
   5 C5            -2.4031     1.3588     0.2429 C.ar    
   6 C6            -1.2160     2.0545     0.2960 C.ar    
   7 C7            -3.6599    -0.7869     0.1568 C.2     
   8 N8            -3.7653    -2.0710     0.1222 N.2     
   9 N9            -5.0790    -2.5332     0.0765 N.am    
  10 C10           -5.9904    -1.3778     0.0814 C.3     
  11 C11           -5.0388    -0.1666     0.1428 C.3     
  12 C12           -5.4537    -3.8271     0.0342 C.2     
  13 O13           -6.6320    -4.1214     0.1004 O.2     
  14 C14           -4.4345    -4.8866    -0.0925 C.ar    
  15 C15           -4.8047    -6.2302     0.0080 C.ar    
  16 C16           -3.0976    -4.5491    -0.3191 C.ar    
  17 C17           -2.1467    -5.5439    -0.4376 C.ar    
  18 C18           -2.5223    -6.8837    -0.3311 C.ar    
  19 C19           -3.8519    -7.2180    -0.1111 C.ar    
  20 S20            1.5115     2.2629     0.3664 S.3     
  21 C21            0.9645     3.9923     0.3952 C.3     
  22 O22           -0.8002    -5.4852    -0.6560 O.3     
  23 C23           -0.2931    -6.7777    -0.2748 C.3     
  24 O24           -1.4115    -7.6599    -0.4836 O.3     
  25 H25            0.9514    -0.5522     0.2811 H       
  26 H26           -1.1608    -1.8046     0.1958 H       
  27 H27           -3.3423     1.8920     0.2317 H       
  28 H28           -1.2243     3.1342     0.3230 H       
  29 H29           -6.5868    -1.3560    -0.8307 H       
  30 H30           -6.6336    -1.4005     0.9611 H       
  31 H31           -5.2136     0.4112     1.0504 H       
  32 H32           -5.1607     0.4605    -0.7403 H       
  33 H33           -5.8378    -6.4943     0.1795 H       
  34 H34           -2.8083    -3.5118    -0.4018 H       
  35 H35           -4.1394    -8.2558    -0.0290 H       
  36 H36            0.3884     4.2061    -0.5051 H       
  37 H37            0.3421     4.1619     1.2737 H       
  38 H38            1.8344     4.6479     0.4342 H       
  39 H39            0.5441    -7.0636    -0.9116 H       
  40 H40            0.0045    -6.7783     0.7738 H       
@<TRIPOS>BOND
   1    1    2 ar
   2    1   20 1
   3    1    6 ar
   4    2    3 ar
   5    2   25 1
   6    3    4 ar
   7    3   26 1
   8    4    5 ar
   9    4    7 1
  10    5    6 ar
  11    5   27 1
  12    6   28 1
  13    7    8 2
  14    7   11 1
  15    8    9 1
  16    9   10 1
  17    9   12 am
  18   10   11 1
  19   10   29 1
  20   10   30 1
  21   11   31 1
  22   11   32 1
  23   12   13 2
  24   12   14 1
  25   14   15 ar
  26   14   16 ar
  27   15   19 ar
  28   15   33 1
  29   16   17 ar
  30   16   34 1
  31   17   18 ar
  32   17   22 1
  33   18   19 ar
  34   18   24 1
  35   19   35 1
  36   20   21 1
  37   21   36 1
  38   21   37 1
  39   21   38 1
  40   22   23 1
  41   23   24 1
  42   23   39 1
  43   23   40 1

#	End of record

