#	Name: ASD01813946
#	Creating user name:	WinNT
#	Creation time:	15. 06. 2019 19:31

#	Modifying user name:	WinNT
#	Modification time:	15. 06. 2019 19:31

#	Program:	/corina/corina34_cracker 3.40 0067  02.08.2006

@<TRIPOS>MOLECULE
ASD01813946
  51   54    0    0    0
SMALL
NO_CHARGES


@<TRIPOS>ATOM
   1 C1            -0.0169     1.3972     0.0097 C.2     
   2 C2             0.0021    -0.0041     0.0020 C.2     
   3 C3             1.1986    -0.6593    -0.0129 C.2     
   4 C4             2.3918     0.0821    -0.0204 C.2     
   5 N5             2.3437     1.4497    -0.0122 N.am    
   6 C6             1.1421     2.0937     0.0024 C.2     
   7 C7             3.6227    -0.5889    -0.0356 C.2     
   8 C8             4.7877     0.1218    -0.0425 C.2     
   9 C9             4.7345     1.5280    -0.0346 C.2     
  10 C10            3.4812     2.1736    -0.0189 C.2     
  11 O11            3.4258     3.3917    -0.0123 O.2     
  12 C12            5.9703     2.3140    -0.0413 C.2     
  13 O13            5.9124     3.6618    -0.0337 O.3     
  14 O14            7.0487     1.7516    -0.0537 O.2     
  15 C15            3.6593    -2.0954    -0.0439 C.3     
  16 N16            3.7787    -2.5747    -1.4274 N.3     
  17 C17            4.0541    -4.0128    -1.4627 C.3     
  18 C18            4.6043    -4.4039    -2.8385 C.3     
  19 S19            3.3373    -4.0398    -4.0919 S.3     
  20 C20            2.9158    -2.3122    -3.7089 C.3     
  21 C21            2.5980    -2.2091    -2.2133 C.3     
  22 C22            5.0686    -4.3546    -0.4021 C.ar    
  23 C23            4.9304    -5.5132     0.3371 C.ar    
  24 C24            5.8651    -5.8276     1.3132 C.ar    
  25 C25            6.9362    -4.9770     1.5441 C.ar    
  26 C26            7.0699    -3.8192     0.8020 C.ar    
  27 C27            6.1402    -3.5109    -0.1736 C.ar    
  28 O28            5.7311    -6.9667     2.0421 O.3     
  29 C29            6.7308    -7.2262     3.0298 C.3     
  30 H30           -0.9605     1.9226     0.0170 H       
  31 H31           -0.9233    -0.5609     0.0082 H       
  32 H32            1.2282    -1.7389    -0.0187 H       
  33 H33            1.1156     3.1733     0.0087 H       
  34 H34            5.7393    -0.3889    -0.0536 H       
  35 H35            6.7544     4.1373    -0.0385 H       
  36 H36            4.5153    -2.4412     0.5356 H       
  37 H37            2.7412    -2.4836     0.3971 H       
  38 H38            3.1326    -4.5628    -1.2715 H       
  39 H39            5.5049    -3.8275    -3.0501 H       
  40 H40            4.8363    -5.4688    -2.8510 H       
  41 H41            3.7610    -1.6672    -3.9490 H       
  42 H42            2.0445    -2.0104    -4.2901 H       
  43 H43            1.7777    -2.8844    -1.9700 H       
  44 H44            2.3066    -1.1863    -1.9746 H       
  45 H45            4.0954    -6.1737     0.1557 H       
  46 H46            7.6648    -5.2193     2.3035 H       
  47 H47            7.9037    -3.1566     0.9814 H       
  48 H48            6.2464    -2.6055    -0.7526 H       
  49 H49            6.5049    -8.1639     3.5376 H       
  50 H50            7.7063    -7.2992     2.5490 H       
  51 H51            6.7435    -6.4136     3.7561 H       
@<TRIPOS>BOND
   1    1    2 1
   2    1    6 2
   3    1   30 1
   4    2    3 2
   5    2   31 1
   6    3    4 1
   7    3   32 1
   8    4    5 1
   9    4    7 2
  10    5    6 1
  11    5   10 am
  12    6   33 1
  13    7    8 1
  14    7   15 1
  15    8    9 2
  16    8   34 1
  17    9   10 1
  18    9   12 1
  19   10   11 2
  20   12   13 1
  21   12   14 2
  22   13   35 1
  23   15   16 1
  24   15   36 1
  25   15   37 1
  26   16   17 1
  27   16   21 1
  28   17   18 1
  29   17   22 1
  30   17   38 1
  31   18   19 1
  32   18   39 1
  33   18   40 1
  34   19   20 1
  35   20   21 1
  36   20   41 1
  37   20   42 1
  38   21   43 1
  39   21   44 1
  40   22   23 ar
  41   22   27 ar
  42   23   24 ar
  43   23   45 1
  44   24   25 ar
  45   24   28 1
  46   25   26 ar
  47   25   46 1
  48   26   27 ar
  49   26   47 1
  50   27   48 1
  51   28   29 1
  52   29   49 1
  53   29   50 1
  54   29   51 1

#	End of record

