#	Name: ASD03091339
#	Creating user name:	WinNT
#	Creation time:	15. 06. 2019 20:30

#	Modifying user name:	WinNT
#	Modification time:	15. 06. 2019 20:30

#	Program:	/corina/corina34_cracker 3.40 0067  02.08.2006

@<TRIPOS>MOLECULE
ASD03091339
  48   52    0    0    0
SMALL
NO_CHARGES


@<TRIPOS>ATOM
   1 N1            -0.0672     1.9777     0.4304 N.am    
   2 C2             0.1253     0.6228     0.4686 C.2     
   3 N3            -0.8567    -0.2395     0.4126 N.2     
   4 C4            -2.1421     0.1560     0.3127 C.ar    
   5 C5            -2.4360     1.5380     0.2672 C.ar    
   6 C6            -1.3168     2.4892     0.3366 C.2     
   7 C7             1.5066     0.1108     0.5775 C.ar    
   8 O8            -1.5063     3.6912     0.3021 O.2     
   9 C9            -3.1877    -0.7706     0.2528 C.ar    
  10 C10           -4.4778    -0.3359     0.1514 C.ar    
  11 C11           -4.7730     1.0268     0.1062 C.ar    
  12 C12           -3.7575     1.9663     0.1636 C.ar    
  13 N13           -6.1022     1.4463     0.0022 N.3     
  14 C14            1.8643    -0.7215     1.6399 C.ar    
  15 C15            3.1553    -1.1969     1.7371 C.ar    
  16 C16            4.0984    -0.8514     0.7852 C.ar    
  17 C17            3.7543    -0.0263    -0.2722 C.ar    
  18 C18            2.4602     0.4528    -0.3857 C.ar    
  19 C19            1.0856     2.8792     0.4975 C.3     
  20 C20           -6.1990     2.7254    -0.7417 C.3     
  21 C21           -7.1474     2.4250    -1.9435 C.3     
  22 N22           -6.3314     1.5494    -2.8427 N.3     
  23 C23           -6.1346     0.2774    -2.1065 C.3     
  24 C24           -6.9183     0.4568    -0.7695 C.3     
  25 C25           -5.0425     2.1780    -3.1616 C.3     
  26 C26           -8.0952     1.3667    -1.2736 C.3     
  27 F27            4.6809     0.3073    -1.1971 F       
  28 F28            2.1235     1.2579    -1.4170 F       
  29 H29           -2.9749    -1.8289     0.2864 H       
  30 H30           -5.2807    -1.0567     0.1052 H       
  31 H31           -3.9877     3.0209     0.1288 H       
  32 H32            1.1309    -0.9926     2.3850 H       
  33 H33            3.4313    -1.8407     2.5591 H       
  34 H34            5.1077    -1.2269     0.8675 H       
  35 H35            1.4689     3.0543    -0.5078 H       
  36 H36            0.7801     3.8273     0.9401 H       
  37 H37            1.8655     2.4268     1.1100 H       
  38 H38           -6.6268     3.5012    -0.1067 H       
  39 H39           -5.2161     3.0292    -1.1019 H       
  40 H40           -7.6187     3.2886    -2.4128 H       
  41 H41           -6.5440    -0.5569    -2.6762 H       
  42 H42           -5.0755     0.1162    -1.9058 H       
  43 H43           -7.1876    -0.4585    -0.2425 H       
  44 H44           -4.4242     2.2141    -2.2647 H       
  45 H45           -4.5344     1.5953    -3.9300 H       
  46 H46           -5.2127     3.1908    -3.5266 H       
  47 H47           -8.6734     1.7895    -0.4520 H       
  48 H48           -8.7293     0.8593    -2.0006 H       
@<TRIPOS>BOND
   1    1    2 1
   2    1   19 1
   3    1    6 am
   4    2    3 2
   5    2    7 1
   6    3    4 1
   7    4    5 ar
   8    4    9 ar
   9    5    6 1
  10    5   12 ar
  11    6    8 2
  12    7   14 ar
  13    7   18 ar
  14    9   10 ar
  15    9   29 1
  16   10   11 ar
  17   10   30 1
  18   11   12 ar
  19   11   13 1
  20   12   31 1
  21   13   20 1
  22   13   24 1
  23   14   15 ar
  24   14   32 1
  25   15   16 ar
  26   15   33 1
  27   16   17 ar
  28   16   34 1
  29   17   18 ar
  30   17   27 1
  31   18   28 1
  32   19   35 1
  33   19   36 1
  34   19   37 1
  35   20   21 1
  36   20   38 1
  37   20   39 1
  38   21   22 1
  39   21   26 1
  40   21   40 1
  41   22   23 1
  42   22   25 1
  43   23   24 1
  44   23   41 1
  45   23   42 1
  46   24   26 1
  47   24   43 1
  48   25   44 1
  49   25   45 1
  50   25   46 1
  51   26   47 1
  52   26   48 1

#	End of record

