#	Name: ASD01917561
#	Creating user name:	WinNT
#	Creation time:	15. 06. 2019 20:09

#	Modifying user name:	WinNT
#	Modification time:	15. 06. 2019 20:09

#	Program:	/corina/corina34_cracker 3.40 0067  02.08.2006

@<TRIPOS>MOLECULE
ASD01917561
  34   36    0    0    0
SMALL
NO_CHARGES


@<TRIPOS>ATOM
   1 N1            -0.0627     1.2924    -0.0004 N.2     
   2 C2            -0.0514     0.0054     0.0037 C.2     
   3 S3             1.5522    -0.5823     0.0625 S.3     
   4 C4             2.1721     1.0667     0.0798 C.2     
   5 C5             1.1128     1.9085     0.0397 C.2     
   6 C6             1.2477     3.3341     0.0399 C.1     
   7 C7             1.3583     4.5029     0.0401 C.1     
   8 C8             1.4932     5.9285     0.0404 C.ar    
   9 C9             2.7587     6.5318     0.0837 C.ar    
  10 N10            2.8397     7.8487     0.0819 N.ar    
  11 C11            1.7460     8.5989     0.0399 C.ar    
  12 N12            0.5309     8.0672    -0.0018 N.ar    
  13 C13            0.3636     6.7585    -0.0086 C.ar    
  14 C14            1.8856    10.0742     0.0402 C.ar    
  15 C15            1.1743    10.8449    -0.8791 C.ar    
  16 C16            1.3080    12.2181    -0.8738 C.ar    
  17 C17            2.1457    12.8308     0.0413 C.ar    
  18 C18            2.8541    12.0717     0.9552 C.ar    
  19 C19            2.7241    10.6977     0.9633 C.ar    
  20 C20            0.2619    10.1791    -1.8767 C.3     
  21 C21           -1.2822    -0.8632    -0.0371 C.3     
  22 H22            3.2124     1.3547     0.1163 H       
  23 H23            3.6532     5.9276     0.1184 H       
  24 H24           -0.6282     6.3328    -0.0474 H       
  25 H25            0.7580    12.8159    -1.5854 H       
  26 H26            2.2472    13.9060     0.0417 H       
  27 H27            3.5070    12.5554     1.6666 H       
  28 H28            3.2740    10.1064     1.6804 H       
  29 H29           -0.7117    10.0046    -1.4187 H       
  30 H30            0.1434    10.8238    -2.7476 H       
  31 H31            0.6940     9.2272    -2.1855 H       
  32 H32           -1.5427    -1.0756    -1.0740 H       
  33 H33           -1.0844    -1.7984     0.4867 H       
  34 H34           -2.1096    -0.3439     0.4464 H       
@<TRIPOS>BOND
   1    1    2 2
   2    1    5 1
   3    2    3 1
   4    2   21 1
   5    3    4 1
   6    4    5 2
   7    4   22 1
   8    5    6 1
   9    6    7 3
  10    7    8 1
  11    8    9 ar
  12    8   13 ar
  13    9   10 ar
  14    9   23 1
  15   10   11 ar
  16   11   12 ar
  17   11   14 1
  18   12   13 ar
  19   13   24 1
  20   14   15 ar
  21   14   19 ar
  22   15   16 ar
  23   15   20 1
  24   16   17 ar
  25   16   25 1
  26   17   18 ar
  27   17   26 1
  28   18   19 ar
  29   18   27 1
  30   19   28 1
  31   20   29 1
  32   20   30 1
  33   20   31 1
  34   21   32 1
  35   21   33 1
  36   21   34 1

#	End of record

