#	Name: ASD02508265
#	Creating user name:	WinNT
#	Creation time:	15. 06. 2019 20:24

#	Modifying user name:	WinNT
#	Modification time:	15. 06. 2019 20:24

#	Program:	/corina/corina34_cracker 3.40 0067  02.08.2006

@<TRIPOS>MOLECULE
ASD02508265
  39   41    0    0    0
SMALL
NO_CHARGES


@<TRIPOS>ATOM
   1 C1             0.2512     0.6125    -0.3443 C.ar    
   2 C2             0.0040    -0.7454    -0.5447 C.ar    
   3 C3            -1.2868    -1.2389    -0.4367 C.ar    
   4 C4            -2.3263    -0.3825    -0.1304 C.ar    
   5 C5            -2.0821     0.9654     0.0682 C.ar    
   6 C6            -0.7977     1.4633    -0.0323 C.ar    
   7 S7            -3.9680    -1.0075     0.0074 S.o2    
   8 N8            -4.2425    -1.3146     1.6114 N.am    
   9 C9            -3.4603    -2.2544     2.2864 C.ar    
  10 O10            1.5822     0.8081    -0.5105 O.3     
  11 C11            2.1670    -0.3639    -0.8036 C.2     
  12 N12            1.2340    -1.3361    -0.8332 N.am    
  13 O13           -4.8350     0.0598    -0.3509 O.2     
  14 O14           -3.9740    -2.2676    -0.6492 O.2     
  15 O15            3.3546    -0.5239    -1.0104 O.2     
  16 C16           -2.9370    -1.9547     3.5377 C.ar    
  17 C17           -3.2086    -3.4932     1.7103 C.ar    
  18 C18           -2.4347    -4.4201     2.3804 C.ar    
  19 C19           -1.9109    -4.1165     3.6237 C.ar    
  20 C20           -2.1639    -2.8863     4.2024 C.ar    
  21 C21            1.4688    -2.7540    -1.1171 C.3     
  22 C22           -2.1611    -5.7643     1.7563 C.3     
  23 C23           -1.5910    -2.5598     5.5574 C.3     
  24 H24           -1.4793    -2.2902    -0.5921 H       
  25 H25           -2.8991     1.6302     0.3068 H       
  26 H26           -0.6120     2.5157     0.1239 H       
  27 H27           -4.9466    -0.8418     2.0821 H       
  28 H28           -3.1341    -0.9941     3.9902 H       
  29 H29           -3.6180    -3.7312     0.7396 H       
  30 H30           -1.3066    -4.8435     4.1459 H       
  31 H31            2.5300    -2.9158    -1.3060 H       
  32 H32            1.1567    -3.3524    -0.2612 H       
  33 H33            0.8944    -3.0487    -1.9954 H       
  34 H34           -1.2520    -5.7085     1.1574 H       
  35 H35           -2.0342    -6.5101     2.5409 H       
  36 H36           -2.9992    -6.0463     1.1190 H       
  37 H37           -0.6115    -2.0973     5.4360 H       
  38 H38           -2.2565    -1.8703     6.0768 H       
  39 H39           -1.4906    -3.4758     6.1397 H       
@<TRIPOS>BOND
   1    1    2 ar
   2    1   10 1
   3    1    6 ar
   4    2    3 ar
   5    2   12 1
   6    3    4 ar
   7    3   24 1
   8    4    5 ar
   9    4    7 1
  10    5    6 ar
  11    5   25 1
  12    6   26 1
  13    7    8 am
  14    7   13 2
  15    7   14 2
  16    8    9 1
  17    8   27 1
  18    9   16 ar
  19    9   17 ar
  20   10   11 1
  21   11   12 am
  22   11   15 2
  23   12   21 1
  24   16   20 ar
  25   16   28 1
  26   17   18 ar
  27   17   29 1
  28   18   19 ar
  29   18   22 1
  30   19   20 ar
  31   19   30 1
  32   20   23 1
  33   21   31 1
  34   21   32 1
  35   21   33 1
  36   22   34 1
  37   22   35 1
  38   22   36 1
  39   23   37 1
  40   23   38 1
  41   23   39 1

#	End of record

