#	Name: ASD01883237
#	Creating user name:	WinNT
#	Creation time:	15. 06. 2019 19:46

#	Modifying user name:	WinNT
#	Modification time:	15. 06. 2019 19:46

#	Program:	/corina/corina34_cracker 3.40 0067  02.08.2006

@<TRIPOS>MOLECULE
ASD01883237
  45   48    0    0    0
SMALL
NO_CHARGES


@<TRIPOS>ATOM
   1 C1             0.1288     0.6383     0.9968 C.ar    
   2 C2            -0.0758    -0.7345     1.1339 C.ar    
   3 C3             0.9876    -1.5619     1.4301 C.ar    
   4 C4             2.2573    -1.0311     1.5914 C.ar    
   5 C5             2.4656     0.3321     1.4567 C.ar    
   6 C6             1.4088     1.1677     1.1602 C.ar    
   7 C7            -1.0086     1.5305     0.6728 C.2     
   8 C8            -1.6597     1.4159    -0.5469 C.2     
   9 C9            -2.7343     2.2747    -0.8267 C.2     
  10 C10           -3.1284     3.2306     0.1308 C.2     
  11 N11           -2.4854     3.3291     1.3112 N.am    
  12 C12           -1.4403     2.4991     1.6065 C.2     
  13 C13           -2.8937     4.2661     2.2150 C.2     
  14 C14           -2.2686     4.3933     3.4134 C.2     
  15 C15           -1.1885     3.5553     3.7362 C.2     
  16 C16           -0.7841     2.6086     2.8404 C.2     
  17 O17           -2.6882     5.3331     4.3018 O.3     
  18 C18           -1.8454     6.3592     4.5906 C.ar    
  19 O19           -4.0615     3.9775    -0.1116 O.2     
  20 C20           -3.4422     2.1780    -2.1080 C.2     
  21 O21           -4.4515     2.8315    -2.2965 O.2     
  22 N22           -2.9749     1.3655    -3.0765 N.am    
  23 C23           -0.6423     6.4983     3.9060 C.ar    
  24 C24            0.1840     7.5607     4.2358 C.ar    
  25 C25           -0.2106     8.4404     5.2261 C.ar    
  26 N26           -1.3578     8.2800     5.8565 N.ar    
  27 C27           -2.1751     7.2868     5.5688 C.ar    
  28 C28            0.6823     9.5984     5.5907 C.3     
  29 F29            3.2956    -1.8454     1.8814 F       
  30 H30           -1.0652    -1.1491     1.0087 H       
  31 H31            0.8302    -2.6250     1.5367 H       
  32 H32            3.4571     0.7411     1.5837 H       
  33 H33            1.5722     2.2301     1.0547 H       
  34 H34           -1.3446     0.6780    -1.2697 H       
  35 H35           -3.7234     4.9142     1.9742 H       
  36 H36           -0.6884     3.6532     4.6884 H       
  37 H37            0.0445     1.9569     3.0751 H       
  38 H38           -2.2109     0.7935    -2.9029 H       
  39 H39           -3.4026     1.3526    -3.9470 H       
  40 H40           -0.3591     5.7953     3.1365 H       
  41 H41            1.1256     7.6994     3.7253 H       
  42 H42           -3.1065     7.1881     6.1066 H       
  43 H43            0.4292    10.4607     4.9739 H       
  44 H44            0.5407     9.8494     6.6419 H       
  45 H45            1.7229     9.3225     5.4200 H       
@<TRIPOS>BOND
   1    1    2 ar
   2    1    6 ar
   3    1    7 1
   4    2    3 ar
   5    2   30 1
   6    3    4 ar
   7    3   31 1
   8    4    5 ar
   9    4   29 1
  10    5    6 ar
  11    5   32 1
  12    6   33 1
  13    7    8 1
  14    7   12 2
  15    8    9 2
  16    8   34 1
  17    9   10 1
  18    9   20 1
  19   10   11 am
  20   10   19 2
  21   11   12 1
  22   11   13 1
  23   12   16 1
  24   13   14 2
  25   13   35 1
  26   14   15 1
  27   14   17 1
  28   15   16 2
  29   15   36 1
  30   16   37 1
  31   17   18 1
  32   18   23 ar
  33   18   27 ar
  34   20   21 2
  35   20   22 am
  36   22   38 1
  37   22   39 1
  38   23   24 ar
  39   23   40 1
  40   24   25 ar
  41   24   41 1
  42   25   26 ar
  43   25   28 1
  44   26   27 ar
  45   27   42 1
  46   28   43 1
  47   28   44 1
  48   28   45 1

#	End of record

