#	Name: ASD01142004
#	Creating user name:	WinNT
#	Creation time:	15. 06. 2019 19:01

#	Modifying user name:	WinNT
#	Modification time:	15. 06. 2019 19:01

#	Program:	/corina/corina34_cracker 3.40 0067  02.08.2006

@<TRIPOS>MOLECULE
ASD01142004
  41   43    0    0    0
SMALL
NO_CHARGES


@<TRIPOS>ATOM
   1 C1            -0.1154     0.7076    -0.1309 C.ar    
   2 C2            -0.2821    -0.6774    -0.1599 C.ar    
   3 C3            -1.5484    -1.2304    -0.1325 C.ar    
   4 C4            -2.6682    -0.4069    -0.0756 C.ar    
   5 C5            -2.4988     0.9863    -0.0459 C.ar    
   6 C6            -1.2176     1.5362    -0.0686 C.ar    
   7 O7             1.1356     1.2420    -0.1582 O.3     
   8 C8             1.2331     2.6673    -0.1259 C.3     
   9 O9             0.8079    -1.4880    -0.2160 O.3     
  10 C10            0.5683    -2.8965    -0.2433 C.3     
  11 N11           -4.0248    -0.6831    -0.0383 N.pl3   
  12 C12           -4.7508     0.4860     0.0150 C.ar    
  13 C13           -3.8495     1.5665     0.0128 C.ar    
  14 C14           -6.1185     0.7570     0.0660 C.ar    
  15 N15           -6.5557     1.9936     0.1107 N.ar    
  16 C16           -5.7336     3.0413     0.1103 C.ar    
  17 C17           -4.3537     2.8632     0.0624 C.ar    
  18 C18           -3.4248     4.0499     0.0630 C.3     
  19 C19           -3.1784     4.5039     1.5032 C.3     
  20 C20           -6.2922     4.4080     0.1621 C.2     
  21 O21           -5.5500     5.3640     0.2661 O.2     
  22 O22           -7.6248     4.5940     0.0941 O.3     
  23 C23           -8.1029     5.9639     0.1510 C.3     
  24 H24           -1.6688    -2.3035    -0.1557 H       
  25 H25           -1.0883     2.6082    -0.0457 H       
  26 H26            2.2826     2.9604    -0.1527 H       
  27 H27            0.7166     3.0865    -0.9894 H       
  28 H28            0.7744     3.0422     0.7891 H       
  29 H29           -0.0282    -3.1467    -1.1206 H       
  30 H30            1.5199    -3.4262    -0.2878 H       
  31 H31            0.0303    -3.1911     0.6578 H       
  32 H32           -4.4091    -1.5737    -0.0487 H       
  33 H33           -6.8251    -0.0597     0.0685 H       
  34 H34           -2.4771     3.7697    -0.3968 H       
  35 H35           -3.8762     4.8650    -0.5027 H       
  36 H36           -2.5065     5.3623     1.5036 H       
  37 H37           -4.1261     4.7841     1.9630 H       
  38 H38           -2.7269     3.6889     2.0689 H       
  39 H39           -7.7912     6.4188     1.0912 H       
  40 H40           -7.6853     6.5293    -0.6821 H       
  41 H41           -9.1909     5.9720     0.0865 H       
@<TRIPOS>BOND
   1    1    2 ar
   2    1    7 1
   3    1    6 ar
   4    2    3 ar
   5    2    9 1
   6    3    4 ar
   7    3   24 1
   8    4    5 ar
   9    4   11 1
  10    5    6 ar
  11    5   13 1
  12    6   25 1
  13    7    8 1
  14    8   26 1
  15    8   27 1
  16    8   28 1
  17    9   10 1
  18   10   29 1
  19   10   30 1
  20   10   31 1
  21   11   12 1
  22   11   32 1
  23   12   13 ar
  24   12   14 ar
  25   13   17 ar
  26   14   15 ar
  27   14   33 1
  28   15   16 ar
  29   16   17 ar
  30   16   20 1
  31   17   18 1
  32   18   19 1
  33   18   34 1
  34   18   35 1
  35   19   36 1
  36   19   37 1
  37   19   38 1
  38   20   21 2
  39   20   22 1
  40   22   23 1
  41   23   39 1
  42   23   40 1
  43   23   41 1

#	End of record

