#	Name: ASD03330597
#	Creating user name:	WinNT
#	Creation time:	15. 06. 2019 20:37

#	Modifying user name:	WinNT
#	Modification time:	15. 06. 2019 20:37

#	Program:	/corina/corina34_cracker 3.40 0067  02.08.2006

@<TRIPOS>MOLECULE
ASD03330597
  59   62    0    0    0
SMALL
NO_CHARGES


@<TRIPOS>ATOM
   1 C1             0.5926     1.5915     0.4698 C.ar    
   2 C2             0.4600     0.1227     0.3543 C.2     
   3 N3            -0.6333    -0.6068     0.7093 N.pl3   
   4 C4            -0.3534    -1.9143     0.4477 C.2     
   5 C5             0.9038    -1.9618    -0.0634 C.2     
   6 N6             1.3753    -0.6953    -0.1132 N.2     
   7 C7             1.6228    -3.1746    -0.4920 C.2     
   8 N8             2.8738    -3.0779    -0.9841 N.am    
   9 C9            -0.2717     2.3092     1.2969 C.ar    
  10 O10            1.0873    -4.2628    -0.4017 O.2     
  11 C11            3.5885    -4.2836    -1.4102 C.3     
  12 C12            3.2048    -4.6211    -2.8523 C.3     
  13 C13            5.0738    -4.0421    -1.3289 C.2     
  14 C14            3.4750    -3.4108    -3.7485 C.3     
  15 N15            5.9130    -5.0730    -1.1065 N.am    
  16 C16            4.0370    -5.8102    -3.3365 C.3     
  17 C17           -1.8989    -0.1272     1.2698 C.3     
  18 C18           -2.9582    -1.2221     1.1015 C.3     
  19 C19           -2.4150    -2.5509     1.6346 C.3     
  20 C20           -1.3053    -3.0549     0.7018 C.3     
  21 C21            1.7187    -4.9797    -2.9140 C.3     
  22 O22            5.5141    -2.9201    -1.4637 O.2     
  23 C23           -0.1434     3.6806     1.4010 C.ar    
  24 C24            0.8429     4.3430     0.6839 C.ar    
  25 C25            1.7024     3.6331    -0.1387 C.ar    
  26 C26            1.5863     2.2628    -0.2438 C.ar    
  27 F27            0.9650     5.6845     0.7879 F       
  28 F28           -0.9793     4.3778     2.2013 F       
  29 C29            7.3443    -4.8247    -0.9168 C.3     
  30 C30            8.1408    -5.8583    -0.1180 C.3     
  31 C31            8.3240    -5.7560    -1.6336 C.3     
  32 H32            3.3008    -2.2099    -1.0561 H       
  33 H33           -1.0398     1.7937     1.8544 H       
  34 H34            3.3194    -5.1149    -0.7585 H       
  35 H35            4.5338    -3.1553    -3.7045 H       
  36 H36            3.2017    -3.6513    -4.7759 H       
  37 H37            2.8822    -2.5637    -3.4035 H       
  38 H38            5.5693    -5.9794    -1.0720 H       
  39 H39            3.8048    -6.6865    -2.7314 H       
  40 H40            3.8020    -6.0169    -4.3806 H       
  41 H41            5.0970    -5.5742    -3.2425 H       
  42 H42           -1.7686     0.0955     2.3289 H       
  43 H43           -2.2154     0.7720     0.7412 H       
  44 H44           -3.8550    -0.9478     1.6570 H       
  45 H45           -3.2049    -1.3288     0.0451 H       
  46 H46           -2.0098    -2.4030     2.6357 H       
  47 H47           -3.2202    -3.2845     1.6720 H       
  48 H48           -1.7398    -3.3886    -0.2405 H       
  49 H49           -0.7731    -3.8800     1.1752 H       
  50 H50            1.1259    -4.1326    -2.5691 H       
  51 H51            1.4454    -5.2201    -3.9414 H       
  52 H52            1.5262    -5.8419    -2.2756 H       
  53 H53            2.4679     4.1533    -0.6952 H       
  54 H54            2.2573     1.7110    -0.8855 H       
  55 H55            7.6299    -3.7781    -0.8113 H       
  56 H56            8.9508    -5.4917     0.5126 H       
  57 H57            7.6000    -6.7231     0.2663 H       
  58 H58            7.9036    -6.5535    -2.2463 H       
  59 H59            9.2543    -5.3221    -2.0000 H       
@<TRIPOS>BOND
   1    1    2 1
   2    1    9 ar
   3    1   26 ar
   4    2    3 1
   5    2    6 2
   6    3    4 1
   7    3   17 1
   8    4    5 2
   9    4   20 1
  10    5    6 1
  11    5    7 1
  12    7    8 am
  13    7   10 2
  14    8   11 1
  15    8   32 1
  16    9   23 ar
  17    9   33 1
  18   11   12 1
  19   11   13 1
  20   11   34 1
  21   12   14 1
  22   12   16 1
  23   12   21 1
  24   13   15 am
  25   13   22 2
  26   14   35 1
  27   14   36 1
  28   14   37 1
  29   15   29 1
  30   15   38 1
  31   16   39 1
  32   16   40 1
  33   16   41 1
  34   17   18 1
  35   17   42 1
  36   17   43 1
  37   18   19 1
  38   18   44 1
  39   18   45 1
  40   19   20 1
  41   19   46 1
  42   19   47 1
  43   20   48 1
  44   20   49 1
  45   21   50 1
  46   21   51 1
  47   21   52 1
  48   23   24 ar
  49   23   28 1
  50   24   25 ar
  51   24   27 1
  52   25   26 ar
  53   25   53 1
  54   26   54 1
  55   29   30 1
  56   29   31 1
  57   29   55 1
  58   30   31 1
  59   30   56 1
  60   30   57 1
  61   31   58 1
  62   31   59 1

#	End of record

