#	Name: ASD01910334
#	Creating user name:	WinNT
#	Creation time:	15. 06. 2019 19:55

#	Modifying user name:	WinNT
#	Modification time:	15. 06. 2019 19:55

#	Program:	/corina/corina34_cracker 3.40 0067  02.08.2006

@<TRIPOS>MOLECULE
ASD01910334
  45   47    0    0    0
SMALL
NO_CHARGES


@<TRIPOS>ATOM
   1 C1             0.0452     1.4274     0.0986 C.ar    
   2 C2             0.0538    -0.0044     0.0754 C.1     
   3 C3             0.0609    -1.1782     0.0563 C.1     
   4 C4             0.0695    -2.6100     0.0331 C.ar    
   5 C5            -1.1298    -3.3149    -0.1198 C.ar    
   6 C6            -1.1208    -4.6802    -0.1423 C.ar    
   7 C7             0.0861    -5.3740    -0.0122 C.ar    
   8 C8             1.2847    -4.6704     0.1406 C.ar    
   9 C9             1.2778    -3.3049     0.1575 C.ar    
  10 C10            0.0949    -6.8499    -0.0357 C.2     
  11 O11           -0.7626    -7.4725     0.5604 O.2     
  12 N12            1.0535    -7.5073    -0.7178 N.am    
  13 C13            1.1526    -8.9715    -0.6466 C.3     
  14 C14            1.1457    -9.5360    -2.0707 C.3     
  15 C15            2.2572    -8.8697    -2.8847 C.3     
  16 C16            2.0024    -7.3626    -2.9613 C.3     
  17 C17            2.0155    -6.7739    -1.5517 C.3     
  18 O18            3.5173    -9.1080    -2.2542 O.3     
  19 C19            2.2757    -9.4560    -4.2978 C.3     
  20 C20            1.2408     2.1347     0.2511 C.ar    
  21 C21            1.2248     3.5136     0.2726 C.ar    
  22 C22            0.0291     4.1985     0.1441 C.ar    
  23 C23           -1.1598     3.5076    -0.0068 C.ar    
  24 C24           -1.1604     2.1263    -0.0372 C.ar    
  25 F25           -2.3217     1.4521    -0.1851 F       
  26 H26           -2.0623    -2.7791    -0.2196 H       
  27 H27           -2.0463    -5.2243    -0.2603 H       
  28 H28            2.2166    -5.2069     0.2414 H       
  29 H29            2.2038    -2.7616     0.2752 H       
  30 H30            2.0802    -9.2511    -0.1472 H       
  31 H31            0.3024    -9.3686    -0.0919 H       
  32 H32            1.3151   -10.6122    -2.0362 H       
  33 H33            0.1817    -9.3338    -2.5375 H       
  34 H34            2.7816    -6.8919    -3.5607 H       
  35 H35            1.0303    -7.1808    -3.4198 H       
  36 H36            1.7370    -5.7209    -1.5929 H       
  37 H37            3.0128    -6.8737    -1.1233 H       
  38 H38            4.2694    -8.7136    -2.7167 H       
  39 H39            1.3145    -9.2749    -4.7788 H       
  40 H40            3.0673    -8.9816    -4.8777 H       
  41 H41            2.4584   -10.5292    -4.2435 H       
  42 H42            2.1752     1.6027     0.3522 H       
  43 H43            2.1485     4.0607     0.3904 H       
  44 H44            0.0242     5.2784     0.1622 H       
  45 H45           -2.0889     4.0491    -0.1061 H       
@<TRIPOS>BOND
   1    1    2 1
   2    1   20 ar
   3    1   24 ar
   4    2    3 3
   5    3    4 1
   6    4    5 ar
   7    4    9 ar
   8    5    6 ar
   9    5   26 1
  10    6    7 ar
  11    6   27 1
  12    7    8 ar
  13    7   10 1
  14    8    9 ar
  15    8   28 1
  16    9   29 1
  17   10   11 2
  18   10   12 am
  19   12   13 1
  20   12   17 1
  21   13   14 1
  22   13   30 1
  23   13   31 1
  24   14   15 1
  25   14   32 1
  26   14   33 1
  27   15   16 1
  28   15   18 1
  29   15   19 1
  30   16   17 1
  31   16   34 1
  32   16   35 1
  33   17   36 1
  34   17   37 1
  35   18   38 1
  36   19   39 1
  37   19   40 1
  38   19   41 1
  39   20   21 ar
  40   20   42 1
  41   21   22 ar
  42   21   43 1
  43   22   23 ar
  44   22   44 1
  45   23   24 ar
  46   23   45 1
  47   24   25 1

#	End of record

