#	Name: ASD09610071
#	Creating user name:	WinNT
#	Creation time:	15. 06. 2019 21:22

#	Modifying user name:	WinNT
#	Modification time:	15. 06. 2019 21:22

#	Program:	/corina/corina34_cracker 3.40 0067  02.08.2006

@<TRIPOS>MOLECULE
ASD09610071
  39   41    0    0    0
SMALL
NO_CHARGES


@<TRIPOS>ATOM
   1 N1            -0.0152     1.4348     0.2074 N.pl3   
   2 N2             0.0085     0.2325     0.9229 N.2     
   3 C3             1.2495    -0.1068     1.1384 C.2     
   4 C4             2.0792     0.8802     0.5603 C.2     
   5 C5             1.2507     1.8253    -0.0111 C.2     
   6 C6             3.5531     0.8977     0.5666 C.2     
   7 O7             4.1695    -0.0001     1.1080 O.2     
   8 N8             4.2176     1.9085    -0.0276 N.am    
   9 C9            -1.2182     2.1444    -0.2344 C.3     
  10 C10            1.7165    -1.3355     1.8754 C.3     
  11 F11            0.7814    -2.3626     1.7090 F       
  12 F12            2.9534    -1.7436     1.3648 F       
  13 C13            6.2682     3.2002    -0.0636 C.ar    
  14 C14            5.6111     1.9694     0.0500 C.ar    
  15 C15            6.3491     0.8106     0.2404 C.ar    
  16 C16            7.7274     0.8731     0.3177 C.ar    
  17 C17            8.3791     2.0885     0.2057 C.ar    
  18 C18            7.6575     3.2501     0.0155 C.ar    
  19 C19            5.4888     4.4443    -0.2734 C.ar    
  20 C20            4.6171     4.8995     0.7162 C.ar    
  21 C21            3.8943     6.0589     0.5155 C.ar    
  22 C22            4.0336     6.7682    -0.6652 C.ar    
  23 C23            4.8970     6.3201    -1.6500 C.ar    
  24 C24            5.6288     5.1659    -1.4572 C.ar    
  25 Cl25           3.1218     8.2247    -0.9118 Cl      
  26 Cl26           4.4410     4.0100     2.1966 Cl      
  27 H27            1.5635     2.7150    -0.5374 H       
  28 H28            3.7282     2.5938    -0.5091 H       
  29 H29           -1.5308     2.8461     0.5389 H       
  30 H30           -1.0018     2.6892    -1.1534 H       
  31 H31           -2.0172     1.4260    -0.4176 H       
  32 H32            1.8192    -1.1059     2.9360 H       
  33 H33            5.8463    -0.1411     0.3285 H       
  34 H34            8.2988    -0.0312     0.4667 H       
  35 H35            9.4565     2.1288     0.2676 H       
  36 H36            8.1702     4.1966    -0.0718 H       
  37 H37            3.2191     6.4126     1.2806 H       
  38 H38            5.0016     6.8771    -2.5693 H       
  39 H39            6.3057     4.8201    -2.2245 H       
@<TRIPOS>BOND
   1    1    2 1
   2    1    5 1
   3    1    9 1
   4    2    3 2
   5    3    4 1
   6    3   10 1
   7    4    5 2
   8    4    6 1
   9    5   27 1
  10    6    7 2
  11    6    8 am
  12    8   14 1
  13    8   28 1
  14    9   29 1
  15    9   30 1
  16    9   31 1
  17   10   11 1
  18   10   12 1
  19   10   32 1
  20   13   14 ar
  21   13   18 ar
  22   13   19 1
  23   14   15 ar
  24   15   16 ar
  25   15   33 1
  26   16   17 ar
  27   16   34 1
  28   17   18 ar
  29   17   35 1
  30   18   36 1
  31   19   20 ar
  32   19   24 ar
  33   20   21 ar
  34   20   26 1
  35   21   22 ar
  36   21   37 1
  37   22   23 ar
  38   22   25 1
  39   23   24 ar
  40   23   38 1
  41   24   39 1

#	End of record

