#	Name: ASD03240281
#	Creating user name:	WinNT
#	Creation time:	15. 06. 2019 20:34

#	Modifying user name:	WinNT
#	Modification time:	15. 06. 2019 20:34

#	Program:	/corina/corina34_cracker 3.40 0067  02.08.2006

@<TRIPOS>MOLECULE
ASD03240281
  98  102    0    0    0
SMALL
NO_CHARGES


@<TRIPOS>ATOM
   1 C1            -0.1144     1.2187    -0.6126 C.2     
   2 N2            -0.0095    -0.0231    -0.0319 N.pl3   
   3 C3            -3.6699     2.2405    -0.0327 C.3     
   4 C4            -2.4758     1.2897     0.0723 C.3     
   5 N5            -1.3117     1.8937    -0.5805 N.pl3   
   6 N6             0.9228     1.7584    -1.1888 N.2     
   7 N7            -4.8340     1.6365     0.6202 N.pl3   
   8 C8            -6.0427     2.3179     0.6525 C.ar    
   9 C9            -7.1581     1.7392     1.2781 C.ar    
  10 C10           -8.3654     2.4248     1.3084 C.ar    
  11 C11           -8.4623     3.6851     0.7168 C.ar    
  12 C12           -7.3454     4.2538     0.0957 C.ar    
  13 C13           -6.1473     3.5763     0.0703 C.ar    
  14 C14           -9.7427     4.4172     0.7459 C.2     
  15 N15           -9.8363     5.6343     0.1745 N.am    
  16 O16          -10.7139     3.9226     1.2856 O.2     
  17 C17          -11.0768     6.2810     0.1030 C.ar    
  18 C18          -11.1472     7.6629     0.2211 C.ar    
  19 C19          -12.2355     5.5407    -0.0916 C.ar    
  20 C20          -13.4581     6.1781    -0.1626 C.ar    
  21 C21          -13.5293     7.5596    -0.0388 C.ar    
  22 C22          -12.3698     8.3003     0.1511 C.ar    
  23 N23          -14.7681     8.2056    -0.1111 N.pl3   
  24 C24          -14.8430     9.6628     0.0194 C.3     
  25 C25          -15.9904     7.4248    -0.3174 C.3     
  26 C26           -7.0478     0.4006     1.9037 C.ar    
  27 C27           -7.4985     0.2020     3.2095 C.ar    
  28 C28           -7.3966    -1.0408     3.7917 C.ar    
  29 C29           -6.8418    -2.1046     3.0745 C.ar    
  30 C30           -6.3911    -1.9046     1.7664 C.ar    
  31 C31           -6.4986    -0.6620     1.1847 C.ar    
  32 C32          -16.5613     7.0233     1.0182 C.ar    
  33 C33          -14.7169    10.2963    -1.3422 C.ar    
  34 C34          -17.4706     7.8458     1.6567 C.ar    
  35 C35          -17.9943     7.4775     2.8818 C.ar    
  36 C36          -17.6091     6.2865     3.4683 C.ar    
  37 C37          -16.7005     5.4635     2.8295 C.ar    
  38 C38          -16.1801     5.8298     1.6023 C.ar    
  39 C39          -15.8478    10.5376    -2.0997 C.ar    
  40 C40          -15.7321    11.1186    -3.3486 C.ar    
  41 C41          -14.4856    11.4587    -3.8399 C.ar    
  42 C42          -13.3548    11.2183    -3.0820 C.ar    
  43 C43          -13.4708    10.6412    -1.8312 C.ar    
  44 C44          -18.1792     5.8855     4.8044 C.3     
  45 C45          -14.3593    12.0912    -5.2019 C.3     
  46 C46          -13.7061    13.4681    -5.0662 C.3     
  47 C47          -13.4949    11.2028    -6.0987 C.3     
  48 C48          -18.9216     4.5550     4.6636 C.3     
  49 C49          -17.0435     5.7310     5.8179 C.3     
  50 C50           -6.7348    -3.3982     3.6793 C.1     
  51 N51           -6.6499    -4.4244     4.1591 N.1     
  52 H52            0.8363    -0.4976    -0.0510 H       
  53 H53           -0.7813    -0.4247     0.3969 H       
  54 H54           -3.4274     3.1837     0.4569 H       
  55 H55           -3.8969     2.4240    -1.0829 H       
  56 H56           -2.2488     1.1061     1.1225 H       
  57 H57           -2.7182     0.3465    -0.4172 H       
  58 H58           -1.3857     2.7698    -0.9902 H       
  59 H59            1.7686     1.2839    -1.2079 H       
  60 H60           -4.7600     0.7604     1.0299 H       
  61 H61           -9.2268     1.9840     1.7881 H       
  62 H62           -7.4222     5.2290    -0.3621 H       
  63 H63           -5.2879     4.0201    -0.4103 H       
  64 H64           -9.0446     6.0624    -0.1872 H       
  65 H65          -10.2455     8.2389     0.3680 H       
  66 H66          -12.1802     4.4665    -0.1878 H       
  67 H67          -14.3592     5.6024    -0.3147 H       
  68 H68          -12.4250     9.3746     0.2473 H       
  69 H69          -15.8003     9.9392     0.4615 H       
  70 H70          -14.0328    10.0124     0.6593 H       
  71 H71          -16.7199     8.0279    -0.8579 H       
  72 H72          -15.7573     6.5311    -0.8963 H       
  73 H73           -7.9272     1.0241     3.7635 H       
  74 H74           -7.7449    -1.1940     4.8025 H       
  75 H75           -5.9623    -2.7257     1.2113 H       
  76 H76           -6.1508    -0.5072     0.1740 H       
  77 H77          -17.7716     8.7763     1.1984 H       
  78 H78          -18.7042     8.1204     3.3809 H       
  79 H79          -16.3993     4.5332     3.2879 H       
  80 H80          -15.4702     5.1868     1.1032 H       
  81 H81          -16.8217    10.2718    -1.7158 H       
  82 H82          -16.6155    11.3065    -3.9407 H       
  83 H83          -12.3808    11.4837    -3.4660 H       
  84 H84          -12.5874    10.4533    -1.2391 H       
  85 H85          -18.8719     6.6533     5.1491 H       
  86 H86          -15.3493    12.2008    -5.6448 H       
  87 H87          -12.7162    13.3586    -4.6234 H       
  88 H88          -13.6148    13.9256    -6.0514 H       
  89 H89          -14.3220    14.1011    -4.4274 H       
  90 H90          -13.9602    10.2219    -6.1953 H       
  91 H91          -13.4036    11.6603    -7.0838 H       
  92 H92          -12.5049    11.0932    -5.6558 H       
  93 H93          -18.2289     3.7872     4.3189 H       
  94 H94          -19.3340     4.2650     5.6300 H       
  95 H95          -19.7307     4.6651     3.9415 H       
  96 H96          -16.5147     6.6788     5.9183 H       
  97 H97          -17.4559     5.4409     6.7843 H       
  98 H98          -16.3509     4.9632     5.4733 H       
@<TRIPOS>BOND
   1    1    2 1
   2    1    6 2
   3    1    5 1
   4    2   52 1
   5    2   53 1
   6    3    4 1
   7    3    7 1
   8    3   54 1
   9    3   55 1
  10    4    5 1
  11    4   56 1
  12    4   57 1
  13    5   58 1
  14    6   59 1
  15    7    8 1
  16    7   60 1
  17    8    9 ar
  18    8   13 ar
  19    9   10 ar
  20    9   26 1
  21   10   11 ar
  22   10   61 1
  23   11   12 ar
  24   11   14 1
  25   12   13 ar
  26   12   62 1
  27   13   63 1
  28   14   15 am
  29   14   16 2
  30   15   17 1
  31   15   64 1
  32   17   18 ar
  33   17   19 ar
  34   18   22 ar
  35   18   65 1
  36   19   20 ar
  37   19   66 1
  38   20   21 ar
  39   20   67 1
  40   21   22 ar
  41   21   23 1
  42   22   68 1
  43   23   24 1
  44   23   25 1
  45   24   33 1
  46   24   69 1
  47   24   70 1
  48   25   32 1
  49   25   71 1
  50   25   72 1
  51   26   27 ar
  52   26   31 ar
  53   27   28 ar
  54   27   73 1
  55   28   29 ar
  56   28   74 1
  57   29   30 ar
  58   29   50 1
  59   30   31 ar
  60   30   75 1
  61   31   76 1
  62   32   34 ar
  63   32   38 ar
  64   33   39 ar
  65   33   43 ar
  66   34   35 ar
  67   34   77 1
  68   35   36 ar
  69   35   78 1
  70   36   37 ar
  71   36   44 1
  72   37   38 ar
  73   37   79 1
  74   38   80 1
  75   39   40 ar
  76   39   81 1
  77   40   41 ar
  78   40   82 1
  79   41   42 ar
  80   41   45 1
  81   42   43 ar
  82   42   83 1
  83   43   84 1
  84   44   48 1
  85   44   49 1
  86   44   85 1
  87   45   46 1
  88   45   47 1
  89   45   86 1
  90   46   87 1
  91   46   88 1
  92   46   89 1
  93   47   90 1
  94   47   91 1
  95   47   92 1
  96   48   93 1
  97   48   94 1
  98   48   95 1
  99   49   96 1
 100   49   97 1
 101   49   98 1
 102   50   51 3

#	End of record

