#	Name: ASD00311053
#	Creating user name:	WinNT
#	Creation time:	15. 06. 2019 18:34

#	Modifying user name:	WinNT
#	Modification time:	15. 06. 2019 18:34

#	Program:	/corina/corina34_cracker 3.40 0067  02.08.2006

@<TRIPOS>MOLECULE
ASD00311053
  40   43    0    0    0
SMALL
NO_CHARGES


@<TRIPOS>ATOM
   1 C1            -0.0179     1.4711     0.0101 C.2     
   2 C2             0.0021    -0.0041     0.0020 C.ar    
   3 C3             1.2223    -0.6870    -0.0133 C.ar    
   4 C4             1.2402    -2.0525    -0.0209 C.ar    
   5 C5             0.0396    -2.7673    -0.0133 C.ar    
   6 C6            -1.1800    -2.0855     0.0016 C.ar    
   7 C7            -1.1991    -0.7200     0.0154 C.ar    
   8 O8             1.0267     2.0933     0.0035 O.2     
   9 N9            -1.1941     2.1290     0.0193 N.am    
  10 C10           -0.3150    -6.4069     0.8534 C.2     
  11 C11           -0.4382    -5.0522     1.0925 C.2     
  12 C12           -1.0034    -4.6180     2.3267 C.2     
  13 C13           -1.4165    -5.5617     3.2584 C.2     
  14 C14           -1.2687    -6.9328     2.9655 C.2     
  15 N15           -0.7340    -7.3215     1.7977 N.am    
  16 C16            0.0596    -4.2458    -0.0215 C.2     
  17 C17            0.5330    -4.9577    -1.0461 C.2     
  18 S18            0.4134    -6.6766    -0.7265 S.3     
  19 O19           -1.6284    -7.7696     3.7774 O.2     
  20 C20           -2.0060    -5.1317     4.5474 C.ar    
  21 C21           -3.3371    -5.4267     4.8415 C.ar    
  22 C22           -3.8805    -5.0239     6.0442 C.ar    
  23 C23           -3.1079    -4.3284     6.9571 C.ar    
  24 C24           -1.7872    -4.0324     6.6709 C.ar    
  25 C25           -1.2306    -4.4353     5.4743 C.ar    
  26 O26           -1.1363    -3.2968     2.5888 O.3     
  27 Cl27           1.1869    -4.2717    -2.5005 Cl      
  28 H28            2.1503    -0.1346    -0.0195 H       
  29 H29            2.1825    -2.5800    -0.0330 H       
  30 H30           -2.1077    -2.6384     0.0067 H       
  31 H31           -2.1417    -0.1931     0.0318 H       
  32 H32           -2.0275     1.6327     0.0205 H       
  33 H33           -1.2073     3.0989     0.0246 H       
  34 H34           -0.6401    -8.2690     1.6126 H       
  35 H35           -3.9413    -5.9690     4.1293 H       
  36 H36           -4.9110    -5.2516     6.2732 H       
  37 H37           -3.5378    -4.0148     7.8970 H       
  38 H38           -1.1892    -3.4889     7.3874 H       
  39 H39           -0.1982    -4.2076     5.2538 H       
  40 H40           -1.5299    -3.1045     3.4509 H       
@<TRIPOS>BOND
   1    1    2 1
   2    1    8 2
   3    1    9 am
   4    2    3 ar
   5    2    7 ar
   6    3    4 ar
   7    3   28 1
   8    4    5 ar
   9    4   29 1
  10    5    6 ar
  11    5   16 1
  12    6    7 ar
  13    6   30 1
  14    7   31 1
  15    9   32 1
  16    9   33 1
  17   10   11 2
  18   10   15 1
  19   10   18 1
  20   11   12 1
  21   11   16 1
  22   12   13 2
  23   12   26 1
  24   13   14 1
  25   13   20 1
  26   14   15 am
  27   14   19 2
  28   15   34 1
  29   16   17 2
  30   17   18 1
  31   17   27 1
  32   20   21 ar
  33   20   25 ar
  34   21   22 ar
  35   21   35 1
  36   22   23 ar
  37   22   36 1
  38   23   24 ar
  39   23   37 1
  40   24   25 ar
  41   24   38 1
  42   25   39 1
  43   26   40 1

#	End of record

