#	Name: ASD09890073
#	Creating user name:	WinNT
#	Creation time:	15. 06. 2019 21:24

#	Modifying user name:	WinNT
#	Modification time:	15. 06. 2019 21:24

#	Program:	/corina/corina34_cracker 3.40 0067  02.08.2006

@<TRIPOS>MOLECULE
ASD09890073
  43   46    0    0    0
SMALL
NO_CHARGES


@<TRIPOS>ATOM
   1 C1            -0.0176     1.3671     0.0640 C.2     
   2 N2            -0.0055    -0.0001     0.0342 N.pl3   
   3 C3            -1.2996    -0.4351     0.1177 C.2     
   4 N4            -2.0758     0.6193     0.1956 N.2     
   5 N5            -1.2620     1.7593     0.1667 N.2     
   6 S6            -1.8304    -2.1153     0.1197 S.3     
   7 C7            -3.6339    -1.9734     0.2522 C.3     
   8 C8             1.1334    -0.8132    -0.0650 C.ar    
   9 C9             2.0781    -0.8327     0.9569 C.ar    
  10 C10            3.1864    -1.6518     0.8132 C.ar    
  11 C11            3.3168    -2.4166    -0.3308 C.ar    
  12 N12            2.4034    -2.3748    -1.2812 N.ar    
  13 C13            1.3317    -1.6143    -1.1813 C.ar    
  14 C14           -4.2816    -3.3648     0.1424 C.3     
  15 C15           -5.0385    -3.6042     1.4652 C.3     
  16 C16           -5.3152    -2.1800     2.0076 C.3     
  17 C17           -4.0198    -1.4157     1.6378 C.3     
  18 O18            1.0702     2.1752     0.0035 O.3     
  19 C19            0.8650     3.5151    -0.0919 C.ar    
  20 C20            1.9393     4.3903     0.0026 C.ar    
  21 C21           -0.4143     4.0070    -0.2891 C.ar    
  22 C22           -0.6202     5.3839    -0.3869 C.ar    
  23 C23            0.4656     6.2560    -0.2853 C.ar    
  24 C24            1.7369     5.7544    -0.0937 C.ar    
  25 C25           -1.9401     5.9005    -0.5913 C.1     
  26 N26           -2.9872     6.3102    -0.7534 N.1     
  27 H27           -4.0155    -1.3209    -0.5331 H       
  28 H28            1.9507    -0.2241     1.8399 H       
  29 H29            3.9399    -1.6920     1.5859 H       
  30 H30            4.1786    -3.0568    -0.4480 H       
  31 H31            0.6054    -1.6065    -1.9806 H       
  32 H32           -4.9782    -3.3874    -0.6957 H       
  33 H33           -3.5122    -4.1254     0.0095 H       
  34 H34           -5.9748    -4.1302     1.2791 H       
  35 H35           -4.4174    -4.1645     2.1640 H       
  36 H36           -6.1793    -1.7387     1.5108 H       
  37 H37           -5.4575    -2.1991     3.0881 H       
  38 H38           -3.2342    -1.6226     2.3645 H       
  39 H39           -4.2127    -0.3446     1.5778 H       
  40 H40            2.9366     4.0037     0.1523 H       
  41 H41           -1.2500     3.3273    -0.3672 H       
  42 H42            0.3111     7.3222    -0.3604 H       
  43 H43            2.5758     6.4299    -0.0149 H       
@<TRIPOS>BOND
   1    1    2 1
   2    1   18 1
   3    1    5 2
   4    2    3 1
   5    2    8 1
   6    3    4 2
   7    3    6 1
   8    4    5 1
   9    6    7 1
  10    7   14 1
  11    7   17 1
  12    7   27 1
  13    8    9 ar
  14    8   13 ar
  15    9   10 ar
  16    9   28 1
  17   10   11 ar
  18   10   29 1
  19   11   12 ar
  20   11   30 1
  21   12   13 ar
  22   13   31 1
  23   14   15 1
  24   14   32 1
  25   14   33 1
  26   15   16 1
  27   15   34 1
  28   15   35 1
  29   16   17 1
  30   16   36 1
  31   16   37 1
  32   17   38 1
  33   17   39 1
  34   18   19 1
  35   19   20 ar
  36   19   21 ar
  37   20   24 ar
  38   20   40 1
  39   21   22 ar
  40   21   41 1
  41   22   23 ar
  42   22   25 1
  43   23   24 ar
  44   23   42 1
  45   24   43 1
  46   25   26 3

#	End of record

