#	Name: ASD01911507
#	Creating user name:	WinNT
#	Creation time:	15. 06. 2019 19:57

#	Modifying user name:	WinNT
#	Modification time:	15. 06. 2019 19:57

#	Program:	/corina/corina34_cracker 3.40 0067  02.08.2006

@<TRIPOS>MOLECULE
ASD01911507
  25   26    0    0    0
SMALL
NO_CHARGES


@<TRIPOS>ATOM
   1 N1            -0.0161     1.3342     0.0094 N.am    
   2 C2             0.0021    -0.0041     0.0020 C.2     
   3 C3             1.5001    -0.0756    -0.0127 C.3     
   4 C4             1.4367     1.4466    -0.0039 C.3     
   5 O5            -0.8700    -0.8469     0.0058 O.2     
   6 C6             2.1059    -0.6798     1.2558 C.3     
   7 C7             2.0815    -0.6661    -1.2989 C.3     
   8 C8            -1.0458     2.2743     0.0197 C.ar    
   9 C9            -2.3650     1.8495     0.1293 C.ar    
  10 C10           -3.3773     2.7925     0.1387 C.ar    
  11 C11           -3.0335     4.1346     0.0378 C.ar    
  12 C12           -1.7013     4.4850    -0.0683 C.ar    
  13 N13           -0.7576     3.5629    -0.0695 N.ar    
  14 Br14          -4.3746     5.4678     0.0447 Br      
  15 H15            1.8286     1.9027    -0.9130 H       
  16 H16            1.8459     1.8930     0.9024 H       
  17 H17            2.0301    -1.7663     1.2128 H       
  18 H18            3.1544    -0.3914     1.3306 H       
  19 H19            1.5648    -0.3120     2.1276 H       
  20 H20            1.5239    -0.2890    -2.1562 H       
  21 H21            3.1284    -0.3768    -1.3906 H       
  22 H22            2.0064    -1.7530    -1.2661 H       
  23 H23           -2.5965     0.7974     0.2056 H       
  24 H24           -4.4113     2.4921     0.2224 H       
  25 H25           -1.4287     5.5270    -0.1471 H       
@<TRIPOS>BOND
   1    1    2 am
   2    1    4 1
   3    1    8 1
   4    2    3 1
   5    2    5 2
   6    3    4 1
   7    3    6 1
   8    3    7 1
   9    4   15 1
  10    4   16 1
  11    6   17 1
  12    6   18 1
  13    6   19 1
  14    7   20 1
  15    7   21 1
  16    7   22 1
  17    8    9 ar
  18    8   13 ar
  19    9   10 ar
  20    9   23 1
  21   10   11 ar
  22   10   24 1
  23   11   12 ar
  24   11   14 1
  25   12   13 ar
  26   12   25 1

#	End of record

