#	Name: ASD08590018
#	Creating user name:	WinNT
#	Creation time:	15. 06. 2019 21:19

#	Modifying user name:	WinNT
#	Modification time:	15. 06. 2019 21:19

#	Program:	/corina/corina34_cracker 3.40 0067  02.08.2006

@<TRIPOS>MOLECULE
ASD08590018
  16   16    0    0    0
SMALL
NO_CHARGES


@<TRIPOS>ATOM
   1 C1            -0.0167     1.3794     0.0096 C.ar    
   2 C2             0.0021    -0.0041     0.0020 C.ar    
   3 C3             1.1695     2.0949     0.0021 C.ar    
   4 C4             2.3787     1.4331    -0.0134 C.ar    
   5 C5             2.4077     0.0369    -0.0211 C.ar    
   6 C6             1.2071    -0.6811    -0.0131 C.ar    
   7 C7             3.6994    -0.6780    -0.0383 C.2     
   8 F8             1.2254    -2.0320    -0.0201 F       
   9 O9             3.7214    -1.8936    -0.0450 O.2     
  10 N10            4.8542     0.0169    -0.0465 N.am    
  11 Br11          -1.6696     2.2980     0.0224 Br      
  12 H12           -0.9263    -0.5559     0.0083 H       
  13 H13            1.1469     3.1747     0.0081 H       
  14 H14            3.3020     1.9934    -0.0199 H       
  15 H15            4.8367     0.9867    -0.0411 H       
  16 H16            5.7028    -0.4528    -0.0577 H       
@<TRIPOS>BOND
   1    1    2 ar
   2    1    3 ar
   3    1   11 1
   4    2    6 ar
   5    2   12 1
   6    3    4 ar
   7    3   13 1
   8    4    5 ar
   9    4   14 1
  10    5    6 ar
  11    5    7 1
  12    6    8 1
  13    7    9 2
  14    7   10 am
  15   10   15 1
  16   10   16 1

#	End of record

