#	Name: ASD03730328
#	Creating user name:	WinNT
#	Creation time:	15. 06. 2019 20:44

#	Modifying user name:	WinNT
#	Modification time:	15. 06. 2019 20:44

#	Program:	/corina/corina34_cracker 3.40 0067  02.08.2006

@<TRIPOS>MOLECULE
ASD03730328
  54   59    0    0    0
SMALL
NO_CHARGES


@<TRIPOS>ATOM
   1 O1            -0.3133     0.5044    -0.3382 O.2     
   2 C2            -0.3812     1.7064    -0.1902 C.2     
   3 N3             0.7354     2.4580    -0.2590 N.am    
   4 C4             1.9839     1.8441    -0.4197 C.ar    
   5 C5             2.0744     0.6014    -1.0307 C.ar    
   6 C6             3.3076    -0.0017    -1.1884 C.ar    
   7 C7             4.4516     0.6307    -0.7385 C.ar    
   8 C8             4.3667     1.8694    -0.1290 C.ar    
   9 C9             3.1366     2.4811     0.0274 C.ar    
  10 F10            3.0540     3.6933     0.6182 F       
  11 C11           -1.7149     2.3600     0.0645 C.3     
  12 N12           -2.7636     1.3373     0.0872 N.am    
  13 C13           -3.1687     0.6608     1.2407 C.ar    
  14 C14           -2.7252     0.7638     2.5580 C.ar    
  15 C15           -3.2815    -0.0213     3.5477 C.ar    
  16 C16           -4.2855    -0.9196     3.2460 C.ar    
  17 C17           -4.7409    -1.0325     1.9324 C.ar    
  18 C18           -4.1816    -0.2430     0.9377 C.ar    
  19 C19           -4.4208    -0.1075    -0.5365 C.3     
  20 C20           -3.4542     0.9432    -1.0014 C.2     
  21 O21           -3.3193     1.3546    -2.1344 O.2     
  22 C22           -4.2222    -1.4387    -1.2749 C.3     
  23 O23           -5.5679    -1.9397    -1.3852 O.3     
  24 C24           -6.4428    -0.8944    -1.3668 C.ar    
  25 C25           -5.8458     0.2551    -0.8572 C.ar    
  26 C26           -6.5656     1.4247    -0.7348 C.ar    
  27 C27           -7.8913     1.4692    -1.1307 C.ar    
  28 F28           -8.5968     2.6151    -1.0111 F       
  29 C29           -8.4922     0.3328    -1.6511 C.ar    
  30 C30           -7.7738    -0.8408    -1.7700 C.ar    
  31 F31           -9.7842     0.3741    -2.0438 F       
  32 C32           -5.8200    -1.9952     1.5993 C.ar    
  33 C33           -5.5958    -3.0427     0.7025 C.ar    
  34 N34           -6.5846    -3.8781     0.4341 N.ar    
  35 C35           -7.7669    -3.7328     0.9990 C.ar    
  36 N36           -8.0205    -2.7583     1.8499 N.ar    
  37 C37           -7.0864    -1.8824     2.1783 C.ar    
  38 H38            0.6744     3.4241    -0.1972 H       
  39 H39            1.1815     0.1059    -1.3823 H       
  40 H40            3.3778    -0.9690    -1.6635 H       
  41 H41            5.4138     0.1564    -0.8630 H       
  42 H42            5.2623     2.3607     0.2217 H       
  43 H43           -1.6895     2.8757     1.0245 H       
  44 H44           -1.9249     3.0782    -0.7282 H       
  45 H45           -1.9403     1.4628     2.8062 H       
  46 H46           -2.9288     0.0675     4.5646 H       
  47 H47           -4.7164    -1.5326     4.0238 H       
  48 H48           -3.7889    -1.2730    -2.2613 H       
  49 H49           -3.6033    -2.1178    -0.6884 H       
  50 H50           -6.0944     2.3076    -0.3290 H       
  51 H51           -8.2476    -1.7218    -2.1770 H       
  52 H52           -4.6301    -3.1678     0.2357 H       
  53 H53           -8.5522    -4.4336     0.7568 H       
  54 H54           -7.3001    -1.0897     2.8800 H       
@<TRIPOS>BOND
   1    1    2 2
   2    2    3 am
   3    2   11 1
   4    3    4 1
   5    3   38 1
   6    4    5 ar
   7    4    9 ar
   8    5    6 ar
   9    5   39 1
  10    6    7 ar
  11    6   40 1
  12    7    8 ar
  13    7   41 1
  14    8    9 ar
  15    8   42 1
  16    9   10 1
  17   11   12 1
  18   11   43 1
  19   11   44 1
  20   12   13 1
  21   12   20 am
  22   13   14 ar
  23   13   18 ar
  24   14   15 ar
  25   14   45 1
  26   15   16 ar
  27   15   46 1
  28   16   17 ar
  29   16   47 1
  30   17   18 ar
  31   17   32 1
  32   18   19 1
  33   19   20 1
  34   19   22 1
  35   19   25 1
  36   20   21 2
  37   22   23 1
  38   22   48 1
  39   22   49 1
  40   23   24 1
  41   24   25 ar
  42   24   30 ar
  43   25   26 ar
  44   26   27 ar
  45   26   50 1
  46   27   28 1
  47   27   29 ar
  48   29   30 ar
  49   29   31 1
  50   30   51 1
  51   32   33 ar
  52   32   37 ar
  53   33   34 ar
  54   33   52 1
  55   34   35 ar
  56   35   36 ar
  57   35   53 1
  58   36   37 ar
  59   37   54 1

#	End of record

