#	Name: ASD03331675
#	Creating user name:	WinNT
#	Creation time:	15. 06. 2019 20:39

#	Modifying user name:	WinNT
#	Modification time:	15. 06. 2019 20:39

#	Program:	/corina/corina34_cracker 3.40 0067  02.08.2006

@<TRIPOS>MOLECULE
ASD03331675
  45   48    0    0    0
SMALL
NO_CHARGES


@<TRIPOS>ATOM
   1 C1            -0.0165     1.3624     0.0095 C.ar    
   2 C2             0.0021    -0.0041     0.0020 C.ar    
   3 C3             1.2070    -0.6927    -0.0132 C.ar    
   4 C4             2.4052    -0.0124    -0.0205 C.ar    
   5 C5             1.1857     2.0718     0.0019 C.ar    
   6 C6             1.5275     3.4963     0.0063 C.2     
   7 C7             2.4100     1.3784    -0.0131 C.ar    
   8 N8             3.4117     2.3231    -0.0172 N.pl3   
   9 C9             2.8673     3.5784    -0.0061 C.2     
  10 S10            3.7886     5.0804    -0.0068 S.o2    
  11 O11            2.9383     6.0729     0.5511 O.2     
  12 O12            5.0688     4.7661     0.5237 O.2     
  13 N13            4.0298     5.5067    -1.5887 N.am    
  14 C14            2.8871     5.8608    -2.4344 C.3     
  15 C15            4.1373     6.4324    -5.9489 C.ar    
  16 C16            3.6859     5.8059    -4.8050 C.ar    
  17 C17            3.3790     6.5508    -3.6805 C.ar    
  18 C18            3.5215     7.9266    -3.6957 C.ar    
  19 C19            3.9712     8.5638    -4.8343 C.ar    
  20 C20            4.2824     7.8184    -5.9700 C.ar    
  21 C21            4.7675     8.4975    -7.1963 C.ar    
  22 C22            4.9120     9.8841    -7.2156 C.ar    
  23 C23            5.3634    10.5133    -8.3557 C.ar    
  24 C24            5.6747     9.7658    -9.4866 C.ar    
  25 C25            5.5312     8.3825    -9.4693 C.ar    
  26 C26            5.0851     7.7493    -8.3292 C.ar    
  27 S27            6.2510    10.5725   -10.9433 S.3     
  28 H28           -0.9579     1.8916     0.0169 H       
  29 H29           -0.9283    -0.5525     0.0083 H       
  30 H30            1.2054    -1.7727    -0.0190 H       
  31 H31            3.3376    -0.5574    -0.0316 H       
  32 H32            0.8333     4.3235     0.0173 H       
  33 H33            4.3618     2.1278    -0.0267 H       
  34 H34            4.9277     5.5220    -1.9554 H       
  35 H35            2.3449     4.9562    -2.7099 H       
  36 H36            2.2232     6.5297    -1.8867 H       
  37 H37            4.3808     5.8495    -6.8248 H       
  38 H38            3.5728     4.7320    -4.7876 H       
  39 H39            3.2801     8.5032    -2.8150 H       
  40 H40            4.0817     9.6381    -4.8452 H       
  41 H41            4.6700    10.4648    -6.3377 H       
  42 H42            5.4751    11.5874    -8.3711 H       
  43 H43            5.7734     7.8037   -10.3483 H       
  44 H44            4.9777     6.6748    -8.3147 H       
  45 H45            7.5850    10.5886   -10.7725 H       
@<TRIPOS>BOND
   1    1    2 ar
   2    1    5 ar
   3    1   28 1
   4    2    3 ar
   5    2   29 1
   6    3    4 ar
   7    3   30 1
   8    4    7 ar
   9    4   31 1
  10    5    7 ar
  11    5    6 1
  12    6    9 2
  13    6   32 1
  14    7    8 1
  15    8    9 1
  16    8   33 1
  17    9   10 1
  18   10   11 2
  19   10   12 2
  20   10   13 am
  21   13   14 1
  22   13   34 1
  23   14   17 1
  24   14   35 1
  25   14   36 1
  26   15   16 ar
  27   15   20 ar
  28   15   37 1
  29   16   17 ar
  30   16   38 1
  31   17   18 ar
  32   18   19 ar
  33   18   39 1
  34   19   20 ar
  35   19   40 1
  36   20   21 1
  37   21   22 ar
  38   21   26 ar
  39   22   23 ar
  40   22   41 1
  41   23   24 ar
  42   23   42 1
  43   24   25 ar
  44   24   27 1
  45   25   26 ar
  46   25   43 1
  47   26   44 1
  48   27   45 1

#	End of record

