#	Name: ASD04840032
#	Creating user name:	WinNT
#	Creation time:	15. 06. 2019 20:52

#	Modifying user name:	WinNT
#	Modification time:	15. 06. 2019 20:52

#	Program:	/corina/corina34_cracker 3.40 0067  02.08.2006

@<TRIPOS>MOLECULE
ASD04840032
  37   39    0    0    0
SMALL
NO_CHARGES


@<TRIPOS>ATOM
   1 C1            -0.0187     1.5258     0.0104 C.3     
   2 C2             0.0021    -0.0041     0.0020 C.3     
   3 C3            -3.2668    -1.2201     1.1826 C.ar    
   4 N4            -3.9486    -1.4621     0.0863 N.ar    
   5 C5            -3.4083    -1.2523    -1.1173 C.ar    
   6 C6            -2.0943    -0.7667    -1.1980 C.ar    
   7 C7            -1.4117    -0.5257     0.0127 C.ar    
   8 N8            -2.0278    -0.7626     1.1532 N.ar    
   9 C9            -1.6617    -0.5957    -2.5697 C.2     
  10 C10           -2.5734    -0.9244    -3.4842 C.2     
  11 S11           -4.0582    -1.4786    -2.7341 S.3     
  12 C12           -2.3601    -0.8340    -4.9446 C.ar    
  13 C13           -3.3779    -1.2022    -5.8256 C.ar    
  14 C14           -1.9606    -0.6648    -7.6796 C.ar    
  15 C15           -1.1422    -0.3748    -5.4478 C.ar    
  16 C16           -3.1724    -1.1155    -7.1871 C.ar    
  17 C17           -0.9495    -0.2929    -6.8115 C.ar    
  18 C18           -1.7432    -0.5727    -9.1679 C.3     
  19 P19            1.6916     2.1568    -0.0025 P.3     
  20 O20            2.4039     1.7481    -1.3873 O.3     
  21 O21            1.6730     3.7605     0.1386 O.3     
  22 O22            2.4423     1.5705     1.1303 O.2     
  23 H23           -0.5459     1.8868    -0.8726 H       
  24 H24           -0.5289     1.8773     0.9072 H       
  25 H25            0.5123    -0.3556    -0.8948 H       
  26 H26            0.5293    -0.3651     0.8851 H       
  27 H27           -3.7360    -1.3966     2.1393 H       
  28 H28           -0.6793    -0.2306    -2.8304 H       
  29 H29           -4.3242    -1.5545    -5.4424 H       
  30 H30           -0.3523    -0.0838    -4.7712 H       
  31 H31           -3.9591    -1.4005    -7.8700 H       
  32 H32           -0.0059     0.0582    -7.2022 H       
  33 H33           -2.0462     0.4137    -9.5191 H       
  34 H34           -0.6879    -0.7295    -9.3914 H       
  35 H35           -2.3381    -1.3357    -9.6699 H       
  36 H36            1.9645     2.0987    -2.1741 H       
  37 H37            2.5511     4.1655     0.1390 H       
@<TRIPOS>BOND
   1    1    2 1
   2    1   19 1
   3    1   23 1
   4    1   24 1
   5    2    7 1
   6    2   25 1
   7    2   26 1
   8    3    4 ar
   9    3    8 ar
  10    3   27 1
  11    4    5 ar
  12    5    6 ar
  13    5   11 1
  14    6    7 ar
  15    6    9 1
  16    7    8 ar
  17    9   10 2
  18    9   28 1
  19   10   11 1
  20   10   12 1
  21   12   13 ar
  22   12   15 ar
  23   13   16 ar
  24   13   29 1
  25   14   16 ar
  26   14   17 ar
  27   14   18 1
  28   15   17 ar
  29   15   30 1
  30   16   31 1
  31   17   32 1
  32   18   33 1
  33   18   34 1
  34   18   35 1
  35   19   20 1
  36   19   21 1
  37   19   22 2
  38   20   36 1
  39   21   37 1

#	End of record

