#	Name: ASD08830006
#	Creating user name:	WinNT
#	Creation time:	15. 06. 2019 21:19

#	Modifying user name:	WinNT
#	Modification time:	15. 06. 2019 21:19

#	Program:	/corina/corina34_cracker 3.40 0067  02.08.2006

@<TRIPOS>MOLECULE
ASD08830006
  42   44    0    0    0
SMALL
NO_CHARGES


@<TRIPOS>ATOM
   1 C1            -0.0169     1.3939     0.0097 C.ar    
   2 C2             0.0021    -0.0041     0.0020 C.ar    
   3 C3            -1.2642    -0.7748     0.0095 C.ar    
   4 C4            -1.2307    -2.1700     0.0017 C.ar    
   5 C5            -2.4880    -0.1040     0.0301 C.ar    
   6 C6            -3.6603    -0.8146     0.0375 C.ar    
   7 C7            -3.6294    -2.2142     0.0239 C.ar    
   8 C8            -2.4005    -2.8849     0.0081 C.ar    
   9 C9            -4.8850    -2.9784     0.0318 C.2     
  10 C10           -4.8503    -4.4849     0.0172 C.3     
  11 C11           -6.2805    -5.0282     0.0293 C.3     
  12 N12           -6.2467    -6.4967     0.0150 N.3     
  13 C13           -7.5829    -7.0569     0.2642 C.3     
  14 C14           -5.2758    -7.0109     0.9919 C.3     
  15 C15           -5.2296    -8.5385     0.9020 C.3     
  16 O16           -6.5426    -9.0635     1.1158 O.3     
  17 C17           -7.5136    -8.5841     0.1815 C.3     
  18 O18           -5.9489    -2.3965     0.0501 O.2     
  19 C19            1.1928     2.0668     0.0018 C.ar    
  20 C20            2.3703     1.3418    -0.0134 C.ar    
  21 N21            2.3570     0.0226    -0.0208 N.ar    
  22 C22            1.2316    -0.6614    -0.0133 C.ar    
  23 H23           -0.9515     1.9350     0.0171 H       
  24 H24           -0.2825    -2.6869    -0.0098 H       
  25 H25           -2.5114     0.9757     0.0405 H       
  26 H26           -4.6071    -0.2951     0.0541 H       
  27 H27           -2.3742    -3.9645    -0.0024 H       
  28 H28           -4.3390    -4.8279    -0.8823 H       
  29 H29           -4.3175    -4.8447     0.8974 H       
  30 H30           -6.7918    -4.6853     0.9288 H       
  31 H31           -6.8133    -4.6685    -0.8510 H       
  32 H32           -7.9222    -6.7612     1.2569 H       
  33 H33           -8.2799    -6.6831    -0.4858 H       
  34 H34           -4.2888    -6.6034     0.7732 H       
  35 H35           -5.5783    -6.7144     1.9963 H       
  36 H36           -4.8757    -8.8344    -0.0856 H       
  37 H37           -4.5536    -8.9277     1.6633 H       
  38 H38           -8.4893    -9.0063     0.4218 H       
  39 H39           -7.2260    -8.8813    -0.8270 H       
  40 H40            1.2168     3.1466     0.0070 H       
  41 H41            3.3158     1.8637    -0.0196 H       
  42 H42            1.2613    -1.7410    -0.0194 H       
@<TRIPOS>BOND
   1    1    2 ar
   2    1   19 ar
   3    1   23 1
   4    2    3 1
   5    2   22 ar
   6    3    4 ar
   7    3    5 ar
   8    4    8 ar
   9    4   24 1
  10    5    6 ar
  11    5   25 1
  12    6    7 ar
  13    6   26 1
  14    7    8 ar
  15    7    9 1
  16    8   27 1
  17    9   10 1
  18    9   18 2
  19   10   11 1
  20   10   28 1
  21   10   29 1
  22   11   12 1
  23   11   30 1
  24   11   31 1
  25   12   13 1
  26   12   14 1
  27   13   17 1
  28   13   32 1
  29   13   33 1
  30   14   15 1
  31   14   34 1
  32   14   35 1
  33   15   16 1
  34   15   36 1
  35   15   37 1
  36   16   17 1
  37   17   38 1
  38   17   39 1
  39   19   20 ar
  40   19   40 1
  41   20   21 ar
  42   20   41 1
  43   21   22 ar
  44   22   42 1

#	End of record

