#	Name: ASD01880458
#	Creating user name:	WinNT
#	Creation time:	15. 06. 2019 19:40

#	Modifying user name:	WinNT
#	Modification time:	15. 06. 2019 19:40

#	Program:	/corina/corina34_cracker 3.40 0067  02.08.2006

@<TRIPOS>MOLECULE
ASD01880458
  44   48    0    0    0
SMALL
NO_CHARGES


@<TRIPOS>ATOM
   1 C1            -0.0169     1.3928     0.0097 C.ar    
   2 C2             0.0021    -0.0041     0.0020 C.ar    
   3 C3             1.2136    -0.6908    -0.0132 C.ar    
   4 C4             2.4022     0.0193    -0.0208 C.ar    
   5 C5             2.3728     1.4246    -0.0130 C.ar    
   6 C6             1.1522     2.1000     0.0023 C.ar    
   7 N7             3.6286    -0.6377    -0.0355 N.pl3   
   8 C8             4.7929     0.0687    -0.0425 C.2     
   9 N9             4.8015     1.4562    -0.0349 N.am    
  10 C10            3.6501     2.1585    -0.0210 C.2     
  11 N11            3.9494    -2.0026    -0.0456 N.2     
  12 C12            5.2607    -2.1201    -0.0583 C.2     
  13 C13            5.8180    -0.8301    -0.0567 C.2     
  14 C14            6.0811     2.1694    -0.0431 C.3     
  15 O15            3.6661     3.3751    -0.0138 O.2     
  16 C16           -1.2740    -0.7593     0.0106 C.ar    
  17 C17            6.0196    -3.3953    -0.0715 C.ar    
  18 C18           -2.4900    -0.0777     0.0264 C.ar    
  19 C19           -3.6745    -0.7851     0.0339 C.ar    
  20 C20           -3.6569    -2.1696     0.0262 C.ar    
  21 C21           -2.4519    -2.8513     0.0106 C.ar    
  22 C22           -1.2618    -2.1532    -0.0028 C.ar    
  23 Cl23          -5.1509    -3.0537     0.0369 Cl      
  24 C24            5.3415    -4.6125    -0.0716 C.ar    
  25 C25            7.4128    -3.3797    -0.0895 C.ar    
  26 C26            8.1135    -4.5687    -0.1017 C.ar    
  27 C27            7.4353    -5.7742    -0.0960 C.ar    
  28 C28            6.0523    -5.7955    -0.0839 C.ar    
  29 H29           -0.9612     1.9168     0.0170 H       
  30 H30            1.2258    -1.7707    -0.0188 H       
  31 H31            1.1313     3.1797     0.0083 H       
  32 H32            6.8715    -0.5927    -0.0648 H       
  33 H33            6.3887     2.3520    -1.0727 H       
  34 H34            5.9701     3.1208     0.4771 H       
  35 H35            6.8366     1.5661     0.4603 H       
  36 H36           -2.5048     1.0021     0.0330 H       
  37 H37           -4.6171    -0.2580     0.0461 H       
  38 H38           -2.4435    -3.9312     0.0051 H       
  39 H39           -0.3224    -2.6858    -0.0150 H       
  40 H40            4.2617    -4.6303    -0.0618 H       
  41 H41            7.9433    -2.4390    -0.0943 H       
  42 H42            9.1934    -4.5578    -0.1160 H       
  43 H43            7.9876    -6.7023    -0.1056 H       
  44 H44            5.5278    -6.7396    -0.0791 H       
@<TRIPOS>BOND
   1    1    2 ar
   2    1    6 ar
   3    1   29 1
   4    2    3 ar
   5    2   16 1
   6    3    4 ar
   7    3   30 1
   8    4    5 ar
   9    4    7 1
  10    5    6 ar
  11    5   10 1
  12    6   31 1
  13    7    8 1
  14    7   11 1
  15    8    9 1
  16    8   13 2
  17    9   10 am
  18    9   14 1
  19   10   15 2
  20   11   12 2
  21   12   13 1
  22   12   17 1
  23   13   32 1
  24   14   33 1
  25   14   34 1
  26   14   35 1
  27   16   18 ar
  28   16   22 ar
  29   17   24 ar
  30   17   25 ar
  31   18   19 ar
  32   18   36 1
  33   19   20 ar
  34   19   37 1
  35   20   21 ar
  36   20   23 1
  37   21   22 ar
  38   21   38 1
  39   22   39 1
  40   24   28 ar
  41   24   40 1
  42   25   26 ar
  43   25   41 1
  44   26   27 ar
  45   26   42 1
  46   27   28 ar
  47   27   43 1
  48   28   44 1

#	End of record

