#	Name: ASD03091466
#	Creating user name:	WinNT
#	Creation time:	15. 06. 2019 20:30

#	Modifying user name:	WinNT
#	Modification time:	15. 06. 2019 20:30

#	Program:	/corina/corina34_cracker 3.40 0067  02.08.2006

@<TRIPOS>MOLECULE
ASD03091466
  58   62    0    0    0
SMALL
NO_CHARGES


@<TRIPOS>ATOM
   1 C1             0.8505     0.9025     0.4813 C.3     
   2 C2             0.8300    -0.6249     0.5909 C.3     
   3 N3             2.2002    -1.1179     0.7845 N.3     
   4 C4             2.7752    -0.6024     2.0347 C.3     
   5 C5             2.8506     0.9255     1.9664 C.3     
   6 C6             2.2994     1.3887     0.6119 C.3     
   7 O7             3.2601     3.3673     3.0356 O.2     
   8 C8             2.3358     2.7371     3.5124 C.2     
   9 N9             2.0489     1.5053     3.0468 N.am    
  10 C10            1.8251     4.5988     5.0841 C.ar    
  11 C11            1.5287     3.3208     4.6001 C.ar    
  12 C12            3.1339     0.7443    -0.5022 C.3     
  13 C13            3.0507    -0.7785    -0.3647 C.3     
  14 C14            1.0729     5.1389     6.0950 C.ar    
  15 C15            0.0142     4.4161     6.6398 C.ar    
  16 C16           -0.2835     3.1429     6.1597 C.ar    
  17 C17            0.4652     2.5975     5.1490 C.ar    
  18 S18           -0.9500     5.1134     7.9393 S.3     
  19 C19           -0.1034     6.6164     8.2984 C.ar    
  20 C20           -0.4950     7.8000     7.6846 C.ar    
  21 C21            0.9536     6.6219     9.2004 C.ar    
  22 C22            1.6145     7.8017     9.4797 C.ar    
  23 C23            1.2255     8.9769     8.8630 C.ar    
  24 C24            0.1705     8.9761     7.9687 C.ar    
  25 C25            1.8913    -1.0178     3.2124 C.3     
  26 C26            1.9135    -2.5181     3.3526 C.ar    
  27 C27            2.8606    -3.1324     4.1496 C.ar    
  28 C28            0.9803    -3.2992     2.6878 C.ar    
  29 C29            1.0389    -4.6752     2.8461 C.ar    
  30 C30            2.0186    -5.2190     3.6555 C.ar    
  31 N31            2.8866    -4.4448     4.2767 N.ar    
  32 H32            0.4496     1.2047    -0.4862 H       
  33 H33            0.2470     1.3341     1.2798 H       
  34 H34            0.2139    -0.9203     1.4401 H       
  35 H35            0.4166    -1.0496    -0.3239 H       
  36 H36            3.7769    -1.0103     2.1696 H       
  37 H37            3.8879     1.2448     2.0670 H       
  38 H38            2.3375     2.4759     0.5437 H       
  39 H39            1.3116     1.0026     3.4271 H       
  40 H40            2.6487     5.1579     4.6652 H       
  41 H41            2.7411     1.0454    -1.4733 H       
  42 H42            4.1723     1.0630    -0.4114 H       
  43 H43            4.0503    -1.1848    -0.2101 H       
  44 H44            2.6217    -1.2027    -1.2725 H       
  45 H45            1.3016     6.1257     6.4695 H       
  46 H46           -1.1050     2.5847     6.5840 H       
  47 H47            0.2337     1.6104     4.7769 H       
  48 H48           -1.3185     7.8001     6.9859 H       
  49 H49            1.2577     5.7047     9.6826 H       
  50 H50            2.4359     7.8068    10.1809 H       
  51 H51            1.7442     9.8982     9.0834 H       
  52 H52           -0.1306     9.8957     7.4890 H       
  53 H53            2.2680    -0.5617     4.1280 H       
  54 H54            0.8688    -0.6846     3.0346 H       
  55 H55            3.5881    -2.5308     4.6742 H       
  56 H56            0.2256    -2.8464     2.0619 H       
  57 H57            0.3278    -5.3142     2.3436 H       
  58 H58            2.0710    -6.2900     3.7840 H       
@<TRIPOS>BOND
   1    1    2 1
   2    1    6 1
   3    1   32 1
   4    1   33 1
   5    2    3 1
   6    2   34 1
   7    2   35 1
   8    3    4 1
   9    3   13 1
  10    4    5 1
  11    4   25 1
  12    4   36 1
  13    5    6 1
  14    5    9 1
  15    5   37 1
  16    6   12 1
  17    6   38 1
  18    7    8 2
  19    8    9 am
  20    8   11 1
  21    9   39 1
  22   10   11 ar
  23   10   14 ar
  24   10   40 1
  25   11   17 ar
  26   12   13 1
  27   12   41 1
  28   12   42 1
  29   13   43 1
  30   13   44 1
  31   14   15 ar
  32   14   45 1
  33   15   16 ar
  34   15   18 1
  35   16   17 ar
  36   16   46 1
  37   17   47 1
  38   18   19 1
  39   19   20 ar
  40   19   21 ar
  41   20   24 ar
  42   20   48 1
  43   21   22 ar
  44   21   49 1
  45   22   23 ar
  46   22   50 1
  47   23   24 ar
  48   23   51 1
  49   24   52 1
  50   25   26 1
  51   25   53 1
  52   25   54 1
  53   26   27 ar
  54   26   28 ar
  55   27   31 ar
  56   27   55 1
  57   28   29 ar
  58   28   56 1
  59   29   30 ar
  60   29   57 1
  61   30   31 ar
  62   30   58 1

#	End of record

