#	Name: ASD01882941
#	Creating user name:	WinNT
#	Creation time:	15. 06. 2019 19:45

#	Modifying user name:	WinNT
#	Modification time:	15. 06. 2019 19:45

#	Program:	/corina/corina34_cracker 3.40 0067  02.08.2006

@<TRIPOS>MOLECULE
ASD01882941
  64   67    0    0    0
SMALL
NO_CHARGES


@<TRIPOS>ATOM
   1 C1            -0.0180     1.4734     0.0101 C.ar    
   2 C2             0.0021    -0.0041     0.0020 C.2     
   3 C3             0.5135    -0.7094    -1.1051 C.2     
   4 C4             0.5255    -2.0616    -1.0977 C.2     
   5 N5             0.0517    -2.7670    -0.0386 N.am    
   6 C6            -0.4490    -2.1490     1.0471 C.2     
   7 C7            -0.4835    -0.7337     1.1016 C.2     
   8 C8             0.0856    -4.2311    -0.0788 C.3     
   9 O9            -0.8685    -2.8063     1.9844 O.2     
  10 C10           -1.0123    -0.0598     2.2491 C.1     
  11 N11           -1.4317     0.4749     3.1595 N.1     
  12 C12            1.3907    -4.7192     0.4953 C.ar    
  13 C13            1.4932    -4.9842     1.8485 C.ar    
  14 C14            2.6884    -5.4318     2.3772 C.ar    
  15 C15            3.7863    -5.6153     1.5493 C.ar    
  16 C16            3.6809    -5.3487     0.1919 C.ar    
  17 C17            2.4818    -4.9067    -0.3329 C.ar    
  18 C18            1.1812     2.1901     0.0025 C.ar    
  19 C19            1.1583     3.5674     0.0102 C.ar    
  20 C20           -0.0555     4.2439     0.0259 C.ar    
  21 C21           -1.2505     3.5346     0.0340 C.ar    
  22 C22           -1.2361     2.1573     0.0196 C.ar    
  23 O23           -0.0739     5.6014     0.0339 O.3     
  24 O24            4.9633    -6.0551     2.0671 O.3     
  25 C25           -1.3558     6.2327     0.0500 C.3     
  26 C26           -1.1759     7.7521     0.0570 C.3     
  27 C27           -2.5484     8.4281     0.0743 C.3     
  28 N28           -2.3757     9.8869     0.0809 N.3     
  29 C29           -3.6583    10.5703    -0.1410 C.3     
  30 C30           -3.4432    12.0842    -0.0670 C.3     
  31 O31           -2.4527    12.4673    -1.0249 O.3     
  32 C32           -1.1907    11.8211    -0.8380 C.3     
  33 C33           -1.3830    10.3044    -0.9198 C.3     
  34 O34            5.1032    -7.5174     2.0754 O.3     
  35 C35            6.3408    -7.9799     2.6199 C.3     
  36 F36            6.4582    -7.5465     3.9449 F       
  37 F37            6.3736    -9.3780     2.5819 F       
  38 F38            7.4023    -7.4679     1.8660 F       
  39 H39            0.8953    -0.1705    -1.9596 H       
  40 H40            0.9200    -2.5915    -1.9520 H       
  41 H41           -0.7415    -4.6300     0.5084 H       
  42 H42           -0.0059    -4.5684    -1.1113 H       
  43 H43            0.6383    -4.8409     2.4926 H       
  44 H44            2.7681    -5.6383     3.4343 H       
  45 H45            4.5342    -5.4908    -0.4547 H       
  46 H46            2.3992    -4.6990    -1.3895 H       
  47 H47            2.1249     1.6651    -0.0090 H       
  48 H48            2.0848     4.1222     0.0043 H       
  49 H49           -2.1918     4.0639     0.0466 H       
  50 H50           -2.1652     1.6067     0.0255 H       
  51 H51           -1.9174     5.9374    -0.8362 H       
  52 H52           -1.9001     5.9272     0.9436 H       
  53 H53           -0.6143     8.0474     0.9432 H       
  54 H54           -0.6317     8.0576    -0.8366 H       
  55 H55           -3.1100     8.1327    -0.8120 H       
  56 H56           -3.0927     8.1225     0.9679 H       
  57 H57           -4.0464    10.3054    -1.1245 H       
  58 H58           -4.3704    10.2659     0.6261 H       
  59 H59           -4.3799    12.5962    -0.2874 H       
  60 H60           -3.1061    12.3555     0.9335 H       
  61 H61           -0.4983    12.1427    -1.6160 H       
  62 H62           -0.7881    12.0847     0.1401 H       
  63 H63           -0.4341     9.8060    -0.7212 H       
  64 H64           -1.7347    10.0354    -1.9157 H       
@<TRIPOS>BOND
   1    1    2 1
   2    1   18 ar
   3    1   22 ar
   4    2    3 1
   5    2    7 2
   6    3    4 2
   7    3   39 1
   8    4    5 1
   9    4   40 1
  10    5    6 am
  11    5    8 1
  12    6    7 1
  13    6    9 2
  14    7   10 1
  15    8   12 1
  16    8   41 1
  17    8   42 1
  18   10   11 3
  19   12   13 ar
  20   12   17 ar
  21   13   14 ar
  22   13   43 1
  23   14   15 ar
  24   14   44 1
  25   15   16 ar
  26   15   24 1
  27   16   17 ar
  28   16   45 1
  29   17   46 1
  30   18   19 ar
  31   18   47 1
  32   19   20 ar
  33   19   48 1
  34   20   21 ar
  35   20   23 1
  36   21   22 ar
  37   21   49 1
  38   22   50 1
  39   23   25 1
  40   24   34 1
  41   25   26 1
  42   25   51 1
  43   25   52 1
  44   26   27 1
  45   26   53 1
  46   26   54 1
  47   27   28 1
  48   27   55 1
  49   27   56 1
  50   28   29 1
  51   28   33 1
  52   29   30 1
  53   29   57 1
  54   29   58 1
  55   30   31 1
  56   30   59 1
  57   30   60 1
  58   31   32 1
  59   32   33 1
  60   32   61 1
  61   32   62 1
  62   33   63 1
  63   33   64 1
  64   34   35 1
  65   35   36 1
  66   35   37 1
  67   35   38 1

#	End of record

