#	Name: ASD01880364
#	Creating user name:	WinNT
#	Creation time:	15. 06. 2019 19:40

#	Modifying user name:	WinNT
#	Modification time:	15. 06. 2019 19:40

#	Program:	/corina/corina34_cracker 3.40 0067  02.08.2006

@<TRIPOS>MOLECULE
ASD01880364
  33   35    0    0    0
SMALL
NO_CHARGES


@<TRIPOS>ATOM
   1 C1            -0.0158     1.3166     0.0093 C.ar    
   2 N2             0.0021    -0.0041     0.0020 N.ar    
   3 C3            -1.1218    -0.7055     0.0094 C.ar    
   4 C4            -2.3611    -0.0158     0.0254 C.ar    
   5 C5            -2.3234     1.3812     0.0325 C.ar    
   6 N6            -1.1363     2.0007     0.0291 N.ar    
   7 C7            -3.7205    -0.5227     0.0357 C.2     
   8 C8            -4.6572     0.4056     0.0497 C.2     
   9 S9            -3.9623     2.0156     0.0517 S.3     
  10 C10           -6.1367     0.1192     0.0623 C.3     
  11 N11           -1.0871    -2.0883     0.0012 N.pl3   
  12 C12            0.1995    -2.7886    -0.0158 C.3     
  13 C13           -0.0386    -4.2767    -0.0219 C.2     
  14 C14            1.2933     2.0630     0.0008 C.3     
  15 C15            0.2735    -5.1031    -0.9935 C.2     
  16 C16           -0.0357    -6.5567    -0.8204 C.3     
  17 C17           -1.0971    -6.7311     0.2927 C.3     
  18 S18           -0.7831    -5.2181     1.2867 S.3     
  19 H19           -3.9477    -1.5785     0.0318 H       
  20 H20           -6.4835     0.0446     1.0929 H       
  21 H21           -6.6674     0.9266    -0.4421 H       
  22 H22           -6.3292    -0.8209    -0.4548 H       
  23 H23           -1.9147    -2.5942     0.0067 H       
  24 H24            0.7553    -2.5060    -0.9099 H       
  25 H25            0.7733    -2.5161     0.8700 H       
  26 H26            1.5991     2.2485    -1.0289 H       
  27 H27            1.1731     3.0133     0.5209 H       
  28 H28            2.0546     1.4670     0.5042 H       
  29 H29            0.7424    -4.7418    -1.8969 H       
  30 H30           -0.4215    -6.9600    -1.7566 H       
  31 H31            0.8730    -7.0908    -0.5427 H       
  32 H32           -2.1057    -6.7340    -0.1207 H       
  33 H33           -0.9103    -7.6310     0.8786 H       
@<TRIPOS>BOND
   1    1    2 ar
   2    1   14 1
   3    1    6 ar
   4    2    3 ar
   5    3    4 ar
   6    3   11 1
   7    4    5 ar
   8    4    7 1
   9    5    6 ar
  10    5    9 1
  11    7    8 2
  12    7   19 1
  13    8    9 1
  14    8   10 1
  15   10   20 1
  16   10   21 1
  17   10   22 1
  18   11   12 1
  19   11   23 1
  20   12   13 1
  21   12   24 1
  22   12   25 1
  23   13   15 2
  24   13   18 1
  25   14   26 1
  26   14   27 1
  27   14   28 1
  28   15   16 1
  29   15   29 1
  30   16   17 1
  31   16   30 1
  32   16   31 1
  33   17   18 1
  34   17   32 1
  35   17   33 1

#	End of record

