#	Name: ASD00140004
#	Creating user name:	WinNT
#	Creation time:	15. 06. 2019 18:31

#	Modifying user name:	WinNT
#	Modification time:	15. 06. 2019 18:31

#	Program:	/corina/corina34_cracker 3.40 0067  02.08.2006

@<TRIPOS>MOLECULE
ASD00140004
 101  104    0    0    0
SMALL
NO_CHARGES


@<TRIPOS>ATOM
   1 C1            -0.0187     1.5256     0.0104 C.3     
   2 C2             0.0021    -0.0041     0.0020 C.3     
   3 C3             0.7205    -0.4986    -1.2548 C.3     
   4 C4             2.1558     0.0323    -1.2653 C.3     
   5 C5             2.1303     1.5629    -1.2617 C.3     
   6 C6             1.4167     2.0553    -0.0004 C.3     
   7 C7             2.8708    -0.4616    -2.5248 C.3     
   8 C8             2.1249     0.0382    -3.7639 C.3     
   9 C9             2.1000     1.5673    -3.7615 C.3     
  10 C10            1.3779     2.0586    -2.4973 C.3     
  11 C11            1.3175     2.0843    -4.9542 C.3     
  12 C12            1.4149     3.6337    -4.9240 C.3     
  13 C13            0.5969     4.1174    -3.7426 C.3     
  14 C14            1.2708     3.5794    -2.4685 C.3     
  15 C15            1.9075     1.7634    -6.3316 C.3     
  16 C16            1.2870     2.8604    -7.2393 C.3     
  17 C17            0.9209     4.0427    -6.3077 C.3     
  18 C18            1.6287     5.3188    -6.7675 C.3     
  19 C19            1.1688     5.6756    -8.1824 C.3     
  20 C20            1.9669     6.8783    -8.6900 C.3     
  21 C21            1.5138     7.2297   -10.0837 C.2     
  22 N22            2.0811     8.2637   -10.7360 N.am    
  23 C23            1.6407     8.6054   -12.0908 C.3     
  24 C24            2.4387     9.8080   -12.5985 C.3     
  25 C25            1.9788    10.1648   -14.0134 C.3     
  26 N26            2.7450    11.3195   -14.5008 N.4     
  27 O27           -1.3386    -0.4985     0.0098 O.3     
  28 C28            3.5634     2.0985    -1.2807 C.3     
  29 O29            0.7857    -0.4600    -3.7469 O.3     
  30 O30           -0.7374     3.6145    -3.8368 O.3     
  31 C31            2.8749     4.0569    -4.7500 C.3     
  32 O32            0.6388     6.5821   -10.6183 O.2     
  33 C33            2.5227    12.4661   -13.6099 C.3     
  34 C34            4.1753    10.9849   -14.5206 C.3     
  35 C35            2.3034    11.6621   -15.8593 C.3     
  36 C36            3.1015    12.8647   -16.3670 C.3     
  37 C37            2.6416    13.2215   -17.7819 C.3     
  38 S38            3.5878    14.6473   -18.3837 S.o2    
  39 O39            3.2425    15.8180   -17.6561 O.2     
  40 O40            4.9469    14.2905   -18.5953 O.2     
  41 O41            3.0441    14.9008   -19.7826 O.3     
  42 H42            0.3695     1.6452    -2.4847 H       
  43 H43            0.2803     1.7537    -4.8990 H       
  44 H44           -0.1587     4.1927    -6.2943 H       
  45 C45            1.2835     6.4651    -5.8147 C.3     
  46 H46            2.7067     5.1571    -6.7658 H       
  47 H47            3.1197     1.9521    -3.7763 H       
  48 H48            2.6827    -0.3252    -0.3806 H       
  49 H49           -0.5459     1.8867    -0.8726 H       
  50 H50           -0.5289     1.8771     0.9072 H       
  51 H51            0.5273    -0.3650     0.8863 H       
  52 H52            0.7362    -1.5884    -1.2592 H       
  53 H53            0.1940    -0.1395    -2.1391 H       
  54 H54            1.4022     3.1451     0.0071 H       
  55 H55            1.9449     1.6923     0.8813 H       
  56 H56            3.8916    -0.0796    -2.5366 H       
  57 H57            2.8906    -1.5514    -2.5277 H       
  58 H58            2.6328    -0.3155    -4.6611 H       
  59 H59            0.5829     5.2071    -3.7227 H       
  60 H60            0.6835     3.8791    -1.6006 H       
  61 H61            2.2704     4.0062    -2.3862 H       
  62 H62            2.9942     1.8460    -6.3145 H       
  63 H63            1.6002     0.7708    -6.6611 H       
  64 H64            2.0129     3.1831    -7.9857 H       
  65 H65            0.3911     2.4785    -7.7288 H       
  66 H66            1.3338     4.8248    -8.8435 H       
  67 H67            0.1075     5.9239    -8.1677 H       
  68 H68            1.8019     7.7290    -8.0290 H       
  69 H69            3.0281     6.6300    -8.7047 H       
  70 H70            2.7809     8.7817   -10.3085 H       
  71 H71            1.8057     7.7546   -12.7519 H       
  72 H72            0.5794     8.8536   -12.0761 H       
  73 H73            2.2737    10.6588   -11.9374 H       
  74 H74            3.5000     9.5598   -12.6132 H       
  75 H75            2.1438     9.3140   -14.6745 H       
  76 H76            0.9175    10.4130   -13.9987 H       
  77 H77           -1.8545    -0.2243     0.7804 H       
  78 H78            4.0710     1.7462    -2.1786 H       
  79 H79            3.5441     3.1883    -1.2781 H       
  80 H80            4.0960     1.7424    -0.3988 H       
  81 H81            0.7250    -1.4251    -3.7474 H       
  82 H82           -1.3131     3.8883    -3.1097 H       
  83 H83            3.4657     3.6744    -5.5823 H       
  84 H84            2.9378     5.1448    -4.7294 H       
  85 H85            3.2612     3.6528    -3.8143 H       
  86 H86            2.8503    12.2119   -12.6018 H       
  87 H87            3.0912    13.3228   -13.9715 H       
  88 H88            1.4614    12.7143   -13.5952 H       
  89 H89            4.3403    10.1341   -15.1817 H       
  90 H90            4.7439    11.8417   -14.8823 H       
  91 H91            4.5030    10.7307   -13.5126 H       
  92 H92            2.4685    10.8113   -16.5204 H       
  93 H93            1.2422    11.9103   -15.8446 H       
  94 H94            2.9365    13.7155   -15.7059 H       
  95 H95            4.1628    12.6164   -16.3817 H       
  96 H96            2.8066    12.3707   -18.4430 H       
  97 H97            1.5803    13.4697   -17.7672 H       
  98 H98            3.4608    15.6455   -20.2375 H       
  99 H99            0.2055     6.6268    -5.8164 H       
 100 H100           1.6111     6.2109    -4.8067 H       
 101 H101           1.7877     7.3742    -6.1422 H       
@<TRIPOS>BOND
   1    1    2 1
   2    1    6 1
   3    1   49 1
   4    1   50 1
   5    2    3 1
   6    2   27 1
   7    2   51 1
   8    3    4 1
   9    3   52 1
  10    3   53 1
  11    4    5 1
  12    4    7 1
  13    4   48 1
  14    5    6 1
  15    5   10 1
  16    5   28 1
  17    6   54 1
  18    6   55 1
  19    7    8 1
  20    7   56 1
  21    7   57 1
  22    8    9 1
  23    8   29 1
  24    8   58 1
  25    9   10 1
  26    9   47 1
  27    9   11 1
  28   10   42 1
  29   10   14 1
  30   11   15 1
  31   11   43 1
  32   11   12 1
  33   12   31 1
  34   12   13 1
  35   12   17 1
  36   13   14 1
  37   13   30 1
  38   13   59 1
  39   14   60 1
  40   14   61 1
  41   15   16 1
  42   15   62 1
  43   15   63 1
  44   16   17 1
  45   16   64 1
  46   16   65 1
  47   17   18 1
  48   17   44 1
  49   18   19 1
  50   18   45 1
  51   18   46 1
  52   19   20 1
  53   19   66 1
  54   19   67 1
  55   20   21 1
  56   20   68 1
  57   20   69 1
  58   21   22 am
  59   21   32 2
  60   22   23 1
  61   22   70 1
  62   23   24 1
  63   23   71 1
  64   23   72 1
  65   24   25 1
  66   24   73 1
  67   24   74 1
  68   25   26 1
  69   25   75 1
  70   25   76 1
  71   26   33 1
  72   26   34 1
  73   26   35 1
  74   27   77 1
  75   28   78 1
  76   28   79 1
  77   28   80 1
  78   29   81 1
  79   30   82 1
  80   31   83 1
  81   31   84 1
  82   31   85 1
  83   33   86 1
  84   33   87 1
  85   33   88 1
  86   34   89 1
  87   34   90 1
  88   34   91 1
  89   35   36 1
  90   35   92 1
  91   35   93 1
  92   36   37 1
  93   36   94 1
  94   36   95 1
  95   37   38 1
  96   37   96 1
  97   37   97 1
  98   38   39 2
  99   38   40 2
 100   38   41 1
 101   41   98 1
 102   45   99 1
 103   45  100 1
 104   45  101 1

#	End of record

