#	Name: ASD01141066
#	Creating user name:	WinNT
#	Creation time:	15. 06. 2019 19:01

#	Modifying user name:	WinNT
#	Modification time:	15. 06. 2019 19:01

#	Program:	/corina/corina34_cracker 3.40 0067  02.08.2006

@<TRIPOS>MOLECULE
ASD01141066
  37   38    0    0    0
SMALL
NO_CHARGES


@<TRIPOS>ATOM
   1 C1             0.3721     0.9435    -0.3073 C.2     
   2 C2            -0.0675    -0.3189     0.2963 C.2     
   3 C3             0.6211     1.0198    -1.7625 C.ar    
   4 O4             0.5269     1.9295     0.3891 O.2     
   5 C5             0.8296    -1.4819     0.3017 C.2     
   6 C6            -1.3256    -0.4141     0.8599 C.2     
   7 C7             0.3258    -0.0709    -2.5829 C.ar    
   8 C8             1.1477     2.1855    -2.3242 C.ar    
   9 O9             0.4190    -2.5651     0.6737 O.2     
  10 N10            2.1075    -1.3491    -0.1054 N.am    
  11 N11           -1.6570    -1.4988     1.5916 N.pl3   
  12 C12            0.5601     0.0069    -3.9395 C.ar    
  13 C13            1.3773     2.2493    -3.6850 C.ar    
  14 Cl14           1.5121     3.5503    -1.3151 Cl      
  15 C15           -2.9625    -1.6479     2.0686 C.ar    
  16 C16            1.0869     1.1628    -4.4896 C.ar    
  17 C17           -3.9213    -0.6835     1.7854 C.ar    
  18 C18           -3.3050    -2.7638     2.8219 C.ar    
  19 C19           -5.2103    -0.8336     2.2574 C.ar    
  20 C20           -4.5955    -2.9088     3.2914 C.ar    
  21 C21           -5.5474    -1.9437     3.0121 C.ar    
  22 Cl22          -7.1686    -2.1290     3.6043 Cl      
  23 H23            2.4549    -0.4729    -0.3347 H       
  24 H24           -0.9892    -2.1748     1.7866 H       
  25 C25            2.9719    -2.5280    -0.2016 C.3     
  26 H26           -2.0438     0.3794     0.7148 H       
  27 H27           -0.0850    -0.9738    -2.1556 H       
  28 H28            0.3358    -0.8377    -4.5740 H       
  29 H29            1.7840     3.1497    -4.1213 H       
  30 H30            1.2682     1.2178    -5.5528 H       
  31 H31           -3.6588     0.1832     1.1968 H       
  32 H32           -2.5626    -3.5173     3.0398 H       
  33 H33           -5.9561    -0.0839     2.0378 H       
  34 H34           -4.8623    -3.7761     3.8770 H       
  35 H35            3.9613    -2.2260    -0.5450 H       
  36 H36            3.0551    -2.9984     0.7781 H       
  37 H37            2.5423    -3.2367    -0.9096 H       
@<TRIPOS>BOND
   1    1    2 1
   2    1    3 1
   3    1    4 2
   4    2    5 1
   5    2    6 2
   6    3    7 ar
   7    3    8 ar
   8    5   10 am
   9    5    9 2
  10    6   11 1
  11    6   26 1
  12    7   12 ar
  13    7   27 1
  14    8   13 ar
  15    8   14 1
  16   10   23 1
  17   10   25 1
  18   11   24 1
  19   11   15 1
  20   12   16 ar
  21   12   28 1
  22   13   16 ar
  23   13   29 1
  24   15   18 ar
  25   15   17 ar
  26   16   30 1
  27   17   19 ar
  28   17   31 1
  29   18   20 ar
  30   18   32 1
  31   19   21 ar
  32   19   33 1
  33   20   21 ar
  34   20   34 1
  35   21   22 1
  36   25   35 1
  37   25   36 1
  38   25   37 1

#	End of record

