#	Name: ASD01840072
#	Creating user name:	WinNT
#	Creation time:	15. 06. 2019 19:37

#	Modifying user name:	WinNT
#	Modification time:	15. 06. 2019 19:37

#	Program:	/corina/corina34_cracker 3.40 0067  02.08.2006

@<TRIPOS>MOLECULE
ASD01840072
  51   54    0    0    0
SMALL
NO_CHARGES


@<TRIPOS>ATOM
   1 C1             0.7901     1.1857     0.9687 C.ar    
   2 C2             0.6457    -0.1986     0.8754 C.ar    
   3 N3            -0.5343    -0.7438     0.6638 N.ar    
   4 C4            -1.6417    -0.0070     0.5294 C.ar    
   5 C5            -1.5694     1.3872     0.6124 C.ar    
   6 C6            -0.3080     1.9860     0.8448 C.ar    
   7 S7            -3.3035    -0.5103     0.2444 S.3     
   8 C8            -3.8845     1.1429     0.2389 C.2     
   9 C9            -2.8671     2.0172     0.4425 C.2     
  10 Cl10           2.3545     1.8847     1.2474 Cl      
  11 O11            1.7361    -0.9944     1.0041 O.3     
  12 C12           -5.2366     1.5169     0.0473 C.2     
  13 N13           -3.0502     3.3923     0.4852 N.pl3   
  14 N14           -6.1764     0.5706    -0.1474 N.am    
  15 O15           -5.5504     2.6937     0.0585 O.2     
  16 C16           -7.5754     0.9576    -0.3456 C.3     
  17 C17           -8.4740    -0.0117    -1.1163 C.3     
  18 C18           -8.6433     0.1507     0.3956 C.3     
  19 C19           -0.1782     3.4842     0.9424 C.3     
  20 C20            1.5265    -2.4041     0.8994 C.3     
  21 C21            2.8613    -3.1322     1.0696 C.3     
  22 N22            3.3956    -2.8679     2.4121 N.3     
  23 C23            4.6337    -3.6248     2.6447 C.3     
  24 C24            5.1996    -3.2619     4.0196 C.3     
  25 N25            4.1995    -3.5633     5.0533 N.3     
  26 C26            2.9615    -2.8065     4.8207 C.3     
  27 C27            2.3955    -3.1693     3.4458 C.3     
  28 H28           -2.3986     3.9547     0.9323 H       
  29 H29           -3.8299     3.7909     0.0679 H       
  30 H30           -5.9264    -0.3666    -0.1563 H       
  31 H31           -7.7535     2.0244    -0.4804 H       
  32 H32           -9.2436     0.4175    -1.7579 H       
  33 H33           -8.0243    -0.9372    -1.4758 H       
  34 H34           -8.3050    -0.6680     1.0307 H       
  35 H35           -9.5243     0.6867     0.7487 H       
  36 H36           -0.4166     3.8043     1.9567 H       
  37 H37            0.8433     3.7770     0.6996 H       
  38 H38           -0.8674     3.9551     0.2414 H       
  39 H39            0.8346    -2.7272     1.6772 H       
  40 H40            1.1075    -2.6374    -0.0794 H       
  41 H41            2.7090    -4.2042     0.9437 H       
  42 H42            3.5680    -2.7752     0.3204 H       
  43 H43            4.4188    -4.6928     2.6102 H       
  44 H44            5.3628    -3.3751     1.8738 H       
  45 H45            6.1023    -3.8437     4.2064 H       
  46 H46            5.4399    -2.1990     4.0450 H       
  47 H47            4.0143    -4.5541     5.0993 H       
  48 H48            2.2324    -3.0561     5.5916 H       
  49 H49            3.1763    -1.7384     4.8553 H       
  50 H50            1.4928    -2.5875     3.2591 H       
  51 H51            2.1552    -4.2322     3.4204 H       
@<TRIPOS>BOND
   1    1    2 ar
   2    1   10 1
   3    1    6 ar
   4    2    3 ar
   5    2   11 1
   6    3    4 ar
   7    4    5 ar
   8    4    7 1
   9    5    6 ar
  10    5    9 1
  11    6   19 1
  12    7    8 1
  13    8    9 2
  14    8   12 1
  15    9   13 1
  16   11   20 1
  17   12   14 am
  18   12   15 2
  19   13   28 1
  20   13   29 1
  21   14   16 1
  22   14   30 1
  23   16   17 1
  24   16   18 1
  25   16   31 1
  26   17   18 1
  27   17   32 1
  28   17   33 1
  29   18   34 1
  30   18   35 1
  31   19   36 1
  32   19   37 1
  33   19   38 1
  34   20   21 1
  35   20   39 1
  36   20   40 1
  37   21   22 1
  38   21   41 1
  39   21   42 1
  40   22   23 1
  41   22   27 1
  42   23   24 1
  43   23   43 1
  44   23   44 1
  45   24   25 1
  46   24   45 1
  47   24   46 1
  48   25   26 1
  49   25   47 1
  50   26   27 1
  51   26   48 1
  52   26   49 1
  53   27   50 1
  54   27   51 1

#	End of record

