#	Name: ASD01816343
#	Creating user name:	WinNT
#	Creation time:	15. 06. 2019 19:35

#	Modifying user name:	WinNT
#	Modification time:	15. 06. 2019 19:35

#	Program:	/corina/corina34_cracker 3.40 0067  02.08.2006

@<TRIPOS>MOLECULE
ASD01816343
  58   64    0    0    0
SMALL
NO_CHARGES


@<TRIPOS>ATOM
   1 C1            -0.0172     1.3995     0.3077 C.ar    
   2 C2            -0.0021     0.0140     0.3146 C.ar    
   3 C3             1.1907    -0.6763     0.2564 C.ar    
   4 C4             2.3942     0.0170     0.1899 C.ar    
   5 C5             2.3754     1.4218     0.1825 C.ar    
   6 C6             1.1660     2.1063     0.2417 C.ar    
   7 N7             3.5945    -0.6695     0.1322 N.pl3   
   8 C8             4.7864    -0.0543     0.0667 C.2     
   9 C9             4.8926     1.3141     0.0526 C.2     
  10 C10            3.6635     2.1375     0.1114 C.2     
  11 C11            5.9910     2.2738    -0.0100 C.2     
  12 N12            5.4222     3.4985     0.0117 N.am    
  13 N13            4.0314     3.3862     0.0846 N.2     
  14 O14            7.1821     2.0206    -0.0694 O.2     
  15 C15            3.5634    -2.1342     0.1435 C.3     
  16 C16            3.4791    -2.6458    -1.2715 C.ar    
  17 C17            4.6370    -2.9059    -1.9813 C.ar    
  18 C18            4.5630    -3.3744    -3.2785 C.ar    
  19 C19            3.3245    -3.5846    -3.8695 C.ar    
  20 C20            2.1637    -3.3229    -3.1542 C.ar    
  21 C21            2.2441    -2.8595    -1.8556 C.ar    
  22 N22            3.2461    -4.0596    -5.1861 N.pl3   
  23 C23            2.1101    -4.3060    -5.8770 C.2     
  24 C24            2.4634    -4.7503    -7.1054 C.2     
  25 C25            3.8610    -4.7767    -7.1684 C.2     
  26 N26            4.3308    -4.3572    -6.0211 N.2     
  27 C27            6.0995     4.6629    -0.0304 C.2     
  28 O28            7.3142     4.6614     0.0131 O.2     
  29 C29            5.3665     5.9396    -0.1293 C.ar    
  30 C30            6.0538     7.1520    -0.0249 C.ar    
  31 C31            5.3660     8.3416    -0.1177 C.ar    
  32 C32            3.9897     8.3374    -0.3150 C.ar    
  33 C33            3.3024     7.1334    -0.4194 C.ar    
  34 C34            3.9838     5.9396    -0.3334 C.ar    
  35 N35            3.2943     9.5485    -0.4083 N.pl3   
  36 C36            1.9674     9.7204    -0.5976 C.2     
  37 N37            1.7427    11.0078    -0.6231 N.2     
  38 N38            2.8363    11.6618    -0.4629 N.2     
  39 N39            3.8256    10.8473    -0.3191 N.2     
  40 H40           -0.9582     1.9278     0.3495 H       
  41 H41           -0.9332    -0.5307     0.3665 H       
  42 H42            1.1899    -1.7563     0.2628 H       
  43 H43            1.1531     3.1863     0.2363 H       
  44 H44            5.6850    -0.6519     0.0244 H       
  45 H45            4.4709    -2.5132     0.6134 H       
  46 H46            2.6937    -2.4748     0.7053 H       
  47 H47            5.6002    -2.7422    -1.5210 H       
  48 H48            5.4677    -3.5767    -3.8326 H       
  49 H49            1.1988    -3.4851    -3.6115 H       
  50 H50            1.3415    -2.6558    -1.2986 H       
  51 H51            1.1019    -4.1728    -5.5135 H       
  52 H52            1.7863    -5.0344    -7.8973 H       
  53 H53            4.4505    -5.0855    -8.0190 H       
  54 H54            7.1228     7.1561     0.1287 H       
  55 H55            5.8963     9.2790    -0.0367 H       
  56 H56            2.2332     7.1343    -0.5723 H       
  57 H57            3.4492     5.0048    -0.4146 H       
  58 H58            1.2297     8.9393    -0.7075 H       
@<TRIPOS>BOND
   1    1    2 ar
   2    1    6 ar
   3    1   40 1
   4    2    3 ar
   5    2   41 1
   6    3    4 ar
   7    3   42 1
   8    4    5 ar
   9    4    7 1
  10    5    6 ar
  11    5   10 1
  12    6   43 1
  13    7    8 1
  14    7   15 1
  15    8    9 2
  16    8   44 1
  17    9   10 1
  18    9   11 1
  19   10   13 2
  20   11   12 am
  21   11   14 2
  22   12   13 1
  23   12   27 am
  24   15   16 1
  25   15   45 1
  26   15   46 1
  27   16   17 ar
  28   16   21 ar
  29   17   18 ar
  30   17   47 1
  31   18   19 ar
  32   18   48 1
  33   19   20 ar
  34   19   22 1
  35   20   21 ar
  36   20   49 1
  37   21   50 1
  38   22   23 1
  39   22   26 1
  40   23   24 2
  41   23   51 1
  42   24   25 1
  43   24   52 1
  44   25   26 2
  45   25   53 1
  46   27   28 2
  47   27   29 1
  48   29   30 ar
  49   29   34 ar
  50   30   31 ar
  51   30   54 1
  52   31   32 ar
  53   31   55 1
  54   32   33 ar
  55   32   35 1
  56   33   34 ar
  57   33   56 1
  58   34   57 1
  59   35   36 1
  60   35   39 1
  61   36   37 2
  62   36   58 1
  63   37   38 1
  64   38   39 2

#	End of record

