#	Name: ASD01150991
#	Creating user name:	WinNT
#	Creation time:	15. 06. 2019 19:05

#	Modifying user name:	WinNT
#	Modification time:	15. 06. 2019 19:05

#	Program:	/corina/corina34_cracker 3.40 0067  02.08.2006

@<TRIPOS>MOLECULE
ASD01150991
  42   44    0    0    0
SMALL
NO_CHARGES


@<TRIPOS>ATOM
   1 C1            -0.0167     1.3800     0.0096 C.2     
   2 C2             0.0021    -0.0041     0.0020 C.2     
   3 N3            -1.2980    -0.4142     0.0127 N.2     
   4 C4            -2.0633     0.6334     0.0259 C.2     
   5 O5            -1.3108     1.7452     0.0299 O.3     
   6 C6            -3.5700     0.6063     0.0408 C.3     
   7 C7            -4.0656     0.5900     1.4882 C.3     
   8 N8             1.0796     2.2215     0.0037 N.am    
   9 C9             1.1898    -0.8625    -0.0148 C.2     
  10 O10            1.0521    -2.2042    -0.0206 O.3     
  11 O11            2.2996    -0.3650    -0.0236 O.2     
  12 C12            2.2717    -2.9920    -0.0374 C.3     
  13 C13            1.9175    -4.4804    -0.0417 C.3     
  14 C14            0.9036     3.5577     0.0125 C.2     
  15 C15            2.0990     4.4753     0.0061 C.3     
  16 O16           -0.2168     4.0216     0.0257 O.2     
  17 O17            1.6852     5.8502    -0.0658 O.3     
  18 C18            2.5541     6.6189     0.6465 C.ar    
  19 C19            3.2916     5.8507     1.5380 C.ar    
  20 C20            2.8455     4.4124     1.3597 C.3     
  21 C21            2.7797     7.9925     0.5958 C.ar    
  22 C22            3.7163     8.5738     1.4249 C.ar    
  23 C23            4.4403     7.7991     2.3126 C.ar    
  24 C24            4.2248     6.4336     2.3667 C.ar    
  25 H25           -3.9543     1.4921    -0.4649 H       
  26 H26           -3.9223    -0.2875    -0.4740 H       
  27 H27           -3.7132     1.4838     2.0030 H       
  28 H28           -5.1553     0.5704     1.4989 H       
  29 H29           -3.6812    -0.2958     1.9939 H       
  30 H30            1.9758     1.8504    -0.0069 H       
  31 H31            2.8465    -2.7527    -0.9320 H       
  32 H32            2.8649    -2.7622     0.8478 H       
  33 H33            2.8331    -5.0717    -0.0543 H       
  34 H34            1.3427    -4.7197     0.8530 H       
  35 H35            1.3244    -4.7101    -0.9269 H       
  36 H36            2.7679     4.2297    -0.8188 H       
  37 H37            2.1723     4.1109     2.1622 H       
  38 H38            3.7035     3.7428     1.3007 H       
  39 H39            2.2190     8.6047    -0.0950 H       
  40 H40            3.8853     9.6395     1.3803 H       
  41 H41            5.1712     8.2585     2.9616 H       
  42 H42            4.7879     5.8248     3.0586 H       
@<TRIPOS>BOND
   1    1    2 2
   2    1    8 1
   3    1    5 1
   4    2    3 1
   5    2    9 1
   6    3    4 2
   7    4    5 1
   8    4    6 1
   9    6    7 1
  10    6   25 1
  11    6   26 1
  12    7   27 1
  13    7   28 1
  14    7   29 1
  15    8   14 am
  16    8   30 1
  17    9   10 1
  18    9   11 2
  19   10   12 1
  20   12   13 1
  21   12   31 1
  22   12   32 1
  23   13   33 1
  24   13   34 1
  25   13   35 1
  26   14   15 1
  27   14   16 2
  28   15   17 1
  29   15   20 1
  30   15   36 1
  31   17   18 1
  32   18   19 ar
  33   18   21 ar
  34   19   20 1
  35   19   24 ar
  36   20   37 1
  37   20   38 1
  38   21   22 ar
  39   21   39 1
  40   22   23 ar
  41   22   40 1
  42   23   24 ar
  43   23   41 1
  44   24   42 1

#	End of record

