#	Name: ASD06342002
#	Creating user name:	WinNT
#	Creation time:	15. 06. 2019 21:06

#	Modifying user name:	WinNT
#	Modification time:	15. 06. 2019 21:06

#	Program:	/corina/corina34_cracker 3.40 0067  02.08.2006

@<TRIPOS>MOLECULE
ASD06342002
  70   69    0    0    0
SMALL
NO_CHARGES


@<TRIPOS>ATOM
   1 C1             0.9570     2.8094     2.0547 C.3     
   2 C2             0.6315     1.3303     1.8374 C.3     
   3 C3             1.4662     0.4783     2.7957 C.3     
   4 C4             1.1407    -1.0008     2.5784 C.3     
   5 C5             1.9754    -1.8528     3.5366 C.3     
   6 C6             1.6499    -3.3319     3.3193 C.3     
   7 C7             2.4846    -4.1839     4.2776 C.3     
   8 C8             2.1591    -5.6630     4.0603 C.3     
   9 C9             2.9813    -6.5022     5.0041 C.2     
  10 C10            2.3951    -7.3797     5.7804 C.2     
  11 C11            0.9257    -7.6702     5.6140 C.3     
  12 C12            0.7181    -9.1783     5.4615 C.3     
  13 C13           -0.7737    -9.4732     5.2926 C.3     
  14 C14           -0.9813   -10.9814     5.1401 C.3     
  15 C15           -2.4731   -11.2763     4.9712 C.3     
  16 C16           -2.6807   -12.7845     4.8186 C.3     
  17 C17           -4.1725   -13.0794     4.6497 C.3     
  18 C18           -4.3770   -14.5649     4.4995 C.2     
  19 O19           -5.6145   -15.0590     4.3375 O.3     
  20 O20           -3.4271   -15.3111     4.5249 O.2     
  21 C21           -5.7363   -16.4992     4.1991 C.3     
  22 C22           -7.2100   -16.8720     4.0251 C.3     
  23 C23           -7.3278   -18.3734     3.7550 C.3     
  24 O24           -8.6905   -18.7019     3.4774 O.3     
  25 O25           -7.9280   -16.5446     5.2164 O.3     
  26 P26           -9.1818   -20.1991     3.1469 P.3     
  27 O27          -10.7864   -20.2210     3.0169 O.3     
  28 O28           -8.5243   -20.6859     1.7603 O.3     
  29 O29           -8.7627   -21.1078     4.2374 O.2     
  30 H30            2.0165     2.9802     1.8638 H       
  31 H31            0.3624     3.4164     1.3720 H       
  32 H32            0.7241     3.0855     3.0831 H       
  33 H33           -0.4280     1.1596     2.0284 H       
  34 H34            0.8644     1.0543     0.8090 H       
  35 H35            2.5257     0.6491     2.6047 H       
  36 H36            1.2333     0.7543     3.8241 H       
  37 H37            0.0812    -1.1715     2.7693 H       
  38 H38            1.3736    -1.2768     1.5500 H       
  39 H39            3.0349    -1.6821     3.3457 H       
  40 H40            1.7425    -1.5768     4.5651 H       
  41 H41            0.5904    -3.5026     3.5103 H       
  42 H42            1.8828    -3.6079     2.2909 H       
  43 H43            3.5441    -4.0132     4.0866 H       
  44 H44            2.2517    -3.9079     5.3060 H       
  45 H45            1.0996    -5.8337     4.2512 H       
  46 H46            2.3920    -5.9390     3.0319 H       
  47 H47            4.0537    -6.3802     5.0406 H       
  48 H48            2.9648    -7.8949     6.5396 H       
  49 H49            0.3837    -7.3156     6.4908 H       
  50 H50            0.5529    -7.1604     4.7257 H       
  51 H51            1.2601    -9.5328     4.5848 H       
  52 H52            1.0909    -9.6881     6.3499 H       
  53 H53           -1.3157    -9.1187     6.1693 H       
  54 H54           -1.1465    -8.9634     4.4042 H       
  55 H55           -0.4393   -11.3359     4.2633 H       
  56 H56           -0.6085   -11.4912     6.0284 H       
  57 H57           -3.0151   -10.9218     5.8479 H       
  58 H58           -2.8460   -10.7665     4.0828 H       
  59 H59           -2.1387   -13.1390     3.9419 H       
  60 H60           -2.3079   -13.2942     5.7070 H       
  61 H61           -4.7145   -12.7248     5.5265 H       
  62 H62           -4.5454   -12.5696     3.7614 H       
  63 H63           -5.1726   -16.8294     3.3266 H       
  64 H64           -5.3417   -16.9847     5.0917 H       
  65 H65           -7.6282   -16.3178     3.1849 H       
  66 H66           -6.7084   -18.6381     2.8980 H       
  67 H67           -6.9917   -18.9277     4.6313 H       
  68 H68           -7.6092   -17.0025     6.0062 H       
  69 H69          -11.1530   -21.0935     2.8181 H       
  70 H70           -8.7565   -20.1351     1.0002 H       
@<TRIPOS>BOND
   1    1    2 1
   2    1   30 1
   3    1   31 1
   4    1   32 1
   5    2    3 1
   6    2   33 1
   7    2   34 1
   8    3    4 1
   9    3   35 1
  10    3   36 1
  11    4    5 1
  12    4   37 1
  13    4   38 1
  14    5    6 1
  15    5   39 1
  16    5   40 1
  17    6    7 1
  18    6   41 1
  19    6   42 1
  20    7    8 1
  21    7   43 1
  22    7   44 1
  23    8    9 1
  24    8   45 1
  25    8   46 1
  26    9   10 2
  27    9   47 1
  28   10   11 1
  29   10   48 1
  30   11   12 1
  31   11   49 1
  32   11   50 1
  33   12   13 1
  34   12   51 1
  35   12   52 1
  36   13   14 1
  37   13   53 1
  38   13   54 1
  39   14   15 1
  40   14   55 1
  41   14   56 1
  42   15   16 1
  43   15   57 1
  44   15   58 1
  45   16   17 1
  46   16   59 1
  47   16   60 1
  48   17   18 1
  49   17   61 1
  50   17   62 1
  51   18   19 1
  52   18   20 2
  53   19   21 1
  54   21   22 1
  55   21   63 1
  56   21   64 1
  57   22   23 1
  58   22   25 1
  59   22   65 1
  60   23   24 1
  61   23   66 1
  62   23   67 1
  63   24   26 1
  64   25   68 1
  65   26   27 1
  66   26   28 1
  67   26   29 2
  68   27   69 1
  69   28   70 1

#	End of record

