#	Name: ASD04840082
#	Creating user name:	WinNT
#	Creation time:	15. 06. 2019 20:52

#	Modifying user name:	WinNT
#	Modification time:	15. 06. 2019 20:52

#	Program:	/corina/corina34_cracker 3.40 0067  02.08.2006

@<TRIPOS>MOLECULE
ASD04840082
  44   48    0    0    0
SMALL
NO_CHARGES


@<TRIPOS>ATOM
   1 C1            -0.0171     1.4121     0.0098 C.ar    
   2 C2            -1.2616     2.0879     0.0193 C.ar    
   3 C3            -2.4538     1.3436     0.0204 C.ar    
   4 C4            -2.4092    -0.0182     0.0124 C.ar    
   5 C5            -1.1972    -0.6979     0.0035 C.ar    
   6 C6             0.0021    -0.0041     0.0020 C.ar    
   7 C7             1.2875    -0.7339    -0.0141 C.ar    
   8 C8             2.2072    -0.6428     1.1214 C.ar    
   9 C9             3.4334    -1.3579     1.0703 C.ar    
  10 C10            3.7411    -2.1324    -0.0543 C.ar    
  11 C11            2.8571    -2.2056    -1.1188 C.ar    
  12 C12            1.6356    -1.5163    -1.0988 C.ar    
  13 N13            1.9088     0.0929     2.1855 N.ar    
  14 C14            2.7336     0.1796     3.2141 C.ar    
  15 C15            3.9610    -0.5008     3.2281 C.ar    
  16 C16            4.3212    -1.2723     2.1619 C.ar    
  17 C17            2.3550     1.0130     4.3770 C.2     
  18 O18            3.1031     1.1021     5.3295 O.2     
  19 O19            1.1806     1.6728     4.3790 O.3     
  20 C20           -1.2811     3.4935     0.0270 C.ar    
  21 C21           -0.1076     4.1834     0.0252 C.ar    
  22 C22            1.1156     3.5168     0.0159 C.ar    
  23 C23            1.1713     2.1556     0.0025 C.ar    
  24 C24            3.2051    -3.0295    -2.2947 C.2     
  25 C25            4.3473    -3.7564    -2.4558 C.2     
  26 C26            4.2705    -4.3834    -3.7092 C.2     
  27 C27            3.0964    -4.0274    -4.2754 C.2     
  28 N28            2.4339    -3.2037    -3.4157 N.pl3   
  29 H29           -3.4068     1.8519     0.0280 H       
  30 H30           -3.3320    -0.5793     0.0133 H       
  31 H31           -1.1900    -1.7779    -0.0021 H       
  32 H32            4.6735    -2.6760    -0.0927 H       
  33 H33            0.9630    -1.5946    -1.9401 H       
  34 H34            4.6186    -0.4140     4.0804 H       
  35 H35            5.2613    -1.8039     2.1547 H       
  36 H36            0.9771     2.2044     5.1606 H       
  37 H37           -2.2222     4.0233     0.0340 H       
  38 H38           -0.1251     5.2633     0.0308 H       
  39 H39            2.0327     4.0871     0.0143 H       
  40 H40            2.1265     1.6517    -0.0090 H       
  41 H41            5.1609    -3.8348    -1.7498 H       
  42 H42            5.0161    -5.0331    -4.1433 H       
  43 H43            2.7409    -4.3459    -5.2442 H       
  44 H44            1.5633    -2.8052    -3.5713 H       
@<TRIPOS>BOND
   1    1    6 ar
   2    1   23 ar
   3    1    2 ar
   4    2    3 ar
   5    2   20 ar
   6    3    4 ar
   7    3   29 1
   8    4    5 ar
   9    4   30 1
  10    5    6 ar
  11    5   31 1
  12    6    7 1
  13    7    8 ar
  14    7   12 ar
  15    8   13 ar
  16    8    9 ar
  17    9   10 ar
  18    9   16 ar
  19   10   11 ar
  20   10   32 1
  21   11   12 ar
  22   11   24 1
  23   12   33 1
  24   13   14 ar
  25   14   15 ar
  26   14   17 1
  27   15   16 ar
  28   15   34 1
  29   16   35 1
  30   17   18 2
  31   17   19 1
  32   19   36 1
  33   20   21 ar
  34   20   37 1
  35   21   22 ar
  36   21   38 1
  37   22   23 ar
  38   22   39 1
  39   23   40 1
  40   24   25 2
  41   24   28 1
  42   25   26 1
  43   25   41 1
  44   26   27 2
  45   26   42 1
  46   27   28 1
  47   27   43 1
  48   28   44 1

#	End of record

