#	Name: ASD03330360
#	Creating user name:	WinNT
#	Creation time:	15. 06. 2019 20:37

#	Modifying user name:	WinNT
#	Modification time:	15. 06. 2019 20:37

#	Program:	/corina/corina34_cracker 3.40 0067  02.08.2006

@<TRIPOS>MOLECULE
ASD03330360
  66   68    0    0    0
SMALL
NO_CHARGES


@<TRIPOS>ATOM
   1 C1             0.0547     2.1180     0.7117 C.3     
   2 N2            -0.1397     0.6780     0.4915 N.3     
   3 C3             0.2958     0.2827    -0.8602 C.3     
   4 C4             1.6785     0.8382    -1.0851 C.2     
   5 N5             2.2363     1.8076    -0.3132 N.pl3   
   6 C6             1.5527     2.4286     0.8249 C.3     
   7 C7             2.5874     0.5089    -2.0366 C.2     
   8 N8             3.6857     1.2729    -1.8369 N.2     
   9 C9             3.4802     2.0552    -0.8010 C.2     
  10 C10            4.4415     3.0399    -0.2575 C.ar    
  11 C11            5.5486     3.4283    -1.0123 C.ar    
  12 C12            2.4102    -0.4993    -3.0967 C.2     
  13 O13            1.3703    -1.1254    -3.1728 O.2     
  14 C14            3.2244    -1.7298    -5.0358 C.3     
  15 N15            3.4005    -0.7275    -3.9819 N.am    
  16 C16           -1.5376     0.2932     0.7276 C.3     
  17 C17            6.4411     4.3474    -0.5000 C.ar    
  18 C18            6.2400     4.8835     0.7594 C.ar    
  19 C19            5.1441     4.5024     1.5129 C.ar    
  20 C20            4.2414     3.5882     1.0097 C.ar    
  21 C21            4.5731    -2.2379    -5.4762 C.2     
  22 C22            2.5043    -1.0957    -6.2275 C.3     
  23 C23           -1.7215    -1.1891     0.3965 C.3     
  24 O24            5.5489    -1.5232    -5.3875 O.2     
  25 C25            6.0198    -4.0190    -6.2960 C.3     
  26 N26            4.6948    -3.4865    -5.9688 N.am    
  27 C27            3.2730     0.1449    -6.6866 C.3     
  28 C28            2.4318    -2.1046    -7.3754 C.3     
  29 C29            1.0878    -0.6932    -5.8121 C.3     
  30 C30           -0.8680    -2.0333     1.3451 C.3     
  31 C31           -3.1944    -1.5695     0.5607 C.3     
  32 H32           -0.3683     2.6730    -0.1257 H       
  33 H33           -0.4475     2.4148     1.6325 H       
  34 H34            0.3186    -0.8043    -0.9368 H       
  35 H35           -0.3903     0.6907    -1.6024 H       
  36 H36            1.7073     3.5074     0.8026 H       
  37 H37            1.9437     2.0196     1.7565 H       
  38 H38            5.7069     3.0102    -1.9955 H       
  39 H39            2.6310    -2.5598    -4.6523 H       
  40 H40            4.2299    -0.2282    -3.9212 H       
  41 H41           -1.7902     0.4659     1.7738 H       
  42 H42           -2.1913     0.8912     0.0926 H       
  43 H43            7.2987     4.6486    -1.0832 H       
  44 H44            6.9416     5.6022     1.1562 H       
  45 H45            4.9926     4.9245     2.4954 H       
  46 H46            3.3863     3.2915     1.5989 H       
  47 H47           -1.4114    -1.3729    -0.6321 H       
  48 H48            6.4870    -3.3902    -7.0539 H       
  49 H49            6.6393    -4.0281    -5.3992 H       
  50 H50            5.9190    -5.0347    -6.6783 H       
  51 H51            3.9051    -4.0327    -6.1067 H       
  52 H52            4.2821    -0.1418    -6.9826 H       
  53 H53            2.7599     0.5967    -7.5356 H       
  54 H54            3.3246     0.8637    -5.8689 H       
  55 H55            1.9811    -3.0303    -7.0176 H       
  56 H56            1.8256    -1.6936    -8.1826 H       
  57 H57            3.4372    -2.3087    -7.7437 H       
  58 H58            1.1394     0.0256    -4.9943 H       
  59 H59            0.5747    -0.2414    -6.6611 H       
  60 H60            0.5401    -1.5770    -5.4850 H       
  61 H61            0.1692    -1.7025     1.2922 H       
  62 H62           -1.2349    -1.9170     2.3648 H       
  63 H63           -0.9302    -3.0819     1.0540 H       
  64 H64           -3.8025    -0.9681    -0.1150 H       
  65 H65           -3.3254    -2.6255     0.3249 H       
  66 H66           -3.5046    -1.3858     1.5894 H       
@<TRIPOS>BOND
   1    1    2 1
   2    1    6 1
   3    1   32 1
   4    1   33 1
   5    2    3 1
   6    2   16 1
   7    3    4 1
   8    3   34 1
   9    3   35 1
  10    4    5 1
  11    4    7 2
  12    5    6 1
  13    5    9 1
  14    6   36 1
  15    6   37 1
  16    7    8 1
  17    7   12 1
  18    8    9 2
  19    9   10 1
  20   10   11 ar
  21   10   20 ar
  22   11   17 ar
  23   11   38 1
  24   12   13 2
  25   12   15 am
  26   14   15 1
  27   14   21 1
  28   14   22 1
  29   14   39 1
  30   15   40 1
  31   16   23 1
  32   16   41 1
  33   16   42 1
  34   17   18 ar
  35   17   43 1
  36   18   19 ar
  37   18   44 1
  38   19   20 ar
  39   19   45 1
  40   20   46 1
  41   21   24 2
  42   21   26 am
  43   22   27 1
  44   22   28 1
  45   22   29 1
  46   23   30 1
  47   23   31 1
  48   23   47 1
  49   25   26 1
  50   25   48 1
  51   25   49 1
  52   25   50 1
  53   26   51 1
  54   27   52 1
  55   27   53 1
  56   27   54 1
  57   28   55 1
  58   28   56 1
  59   28   57 1
  60   29   58 1
  61   29   59 1
  62   29   60 1
  63   30   61 1
  64   30   62 1
  65   30   63 1
  66   31   64 1
  67   31   65 1
  68   31   66 1

#	End of record

