#	Name: ASD01890448
#	Creating user name:	WinNT
#	Creation time:	15. 06. 2019 19:51

#	Modifying user name:	WinNT
#	Modification time:	15. 06. 2019 19:51

#	Program:	/corina/corina34_cracker 3.40 0067  02.08.2006

@<TRIPOS>MOLECULE
ASD01890448
  52   55    0    0    0
SMALL
NO_CHARGES


@<TRIPOS>ATOM
   1 C1            -0.2389     1.5985     0.6581 C.2     
   2 N2            -0.3857     0.2924     0.9082 N.am    
   3 C3             0.6177    -0.5897     0.7144 C.2     
   4 C4             1.9368    -0.0483     0.1966 C.3     
   5 C5             1.9960     1.4467    -0.0539 C.2     
   6 N6             0.8829     2.1666     0.2012 N.am    
   7 O7            -1.1957     2.3206     0.8557 O.2     
   8 O8             0.4702    -1.7705     0.9458 O.2     
   9 O9             3.0056     1.9754    -0.4674 O.2     
  10 C10            3.0278    -0.4051     1.2082 C.3     
  11 C11            3.2093    -1.9237     1.2483 C.3     
  12 C12            4.1704    -2.2859     2.3511 C.2     
  13 C13            4.3243     0.2452     0.7992 C.ar    
  14 C14            4.9454     1.1425     1.6477 C.ar    
  15 C15            6.1346     1.7390     1.2724 C.ar    
  16 C16            6.7029     1.4379     0.0488 C.ar    
  17 C17            6.0823     0.5400    -0.7993 C.ar    
  18 C18            4.8953    -0.0598    -0.4222 C.ar    
  19 C19            4.5120    -3.6932     2.5946 C.ar    
  20 C20            5.4049    -4.0324     3.6188 C.ar    
  21 C21            5.7202    -5.3478     3.8425 C.ar    
  22 C22            5.1552    -6.3448     3.0538 C.ar    
  23 C23            4.2677    -6.0131     2.0353 C.ar    
  24 C24            3.9415    -4.7011     1.8072 C.ar    
  25 O25            5.4710    -7.6447     3.2785 O.3     
  26 C26            4.9408    -8.2499     4.3735 C.ar    
  27 C27            4.0439    -7.5645     5.1806 C.ar    
  28 C28            3.5060    -8.1823     6.2928 C.ar    
  29 C29            3.8609    -9.4823     6.6026 C.ar    
  30 C30            4.7544   -10.1675     5.8000 C.ar    
  31 C31            5.2908    -9.5564     4.6834 C.ar    
  32 O32            4.6619    -1.4149     3.0375 O.2     
  33 H33           -1.2385    -0.0304     1.2391 H       
  34 H34            2.1692    -0.5583    -0.7383 H       
  35 H35            0.8968     3.1244     0.0486 H       
  36 H36            2.7380    -0.0476     2.1963 H       
  37 H37            2.2467    -2.3999     1.4343 H       
  38 H38            3.6061    -2.2675     0.2930 H       
  39 H39            4.5013     1.3777     2.6037 H       
  40 H40            6.6195     2.4406     1.9351 H       
  41 H41            7.6317     1.9045    -0.2447 H       
  42 H42            6.5261     0.3050    -1.7555 H       
  43 H43            4.4123    -0.7642    -1.0833 H       
  44 H44            5.8446    -3.2591     4.2312 H       
  45 H45            6.4086    -5.6105     4.6321 H       
  46 H46            3.8320    -6.7908     1.4255 H       
  47 H47            3.2490    -4.4450     1.0191 H       
  48 H48            3.7669    -6.5489     4.9395 H       
  49 H49            2.8079    -7.6493     6.9213 H       
  50 H50            3.4397    -9.9632     7.4730 H       
  51 H51            5.0299   -11.1828     6.0442 H       
  52 H52            5.9852   -10.0935     4.0544 H       
@<TRIPOS>BOND
   1    1    2 am
   2    1    6 am
   3    1    7 2
   4    2    3 am
   5    2   33 1
   6    3    4 1
   7    3    8 2
   8    4    5 1
   9    4   10 1
  10    4   34 1
  11    5    6 am
  12    5    9 2
  13    6   35 1
  14   10   11 1
  15   10   13 1
  16   10   36 1
  17   11   12 1
  18   11   37 1
  19   11   38 1
  20   12   19 1
  21   12   32 2
  22   13   14 ar
  23   13   18 ar
  24   14   15 ar
  25   14   39 1
  26   15   16 ar
  27   15   40 1
  28   16   17 ar
  29   16   41 1
  30   17   18 ar
  31   17   42 1
  32   18   43 1
  33   19   20 ar
  34   19   24 ar
  35   20   21 ar
  36   20   44 1
  37   21   22 ar
  38   21   45 1
  39   22   23 ar
  40   22   25 1
  41   23   24 ar
  42   23   46 1
  43   24   47 1
  44   25   26 1
  45   26   27 ar
  46   26   31 ar
  47   27   28 ar
  48   27   48 1
  49   28   29 ar
  50   28   49 1
  51   29   30 ar
  52   29   50 1
  53   30   31 ar
  54   30   51 1
  55   31   52 1

#	End of record

