#	Name: ASD01940688
#	Creating user name:	WinNT
#	Creation time:	15. 06. 2019 20:13

#	Modifying user name:	WinNT
#	Modification time:	15. 06. 2019 20:13

#	Program:	/corina/corina34_cracker 3.40 0067  02.08.2006

@<TRIPOS>MOLECULE
ASD01940688
  39   41    0    0    0
SMALL
NO_CHARGES


@<TRIPOS>ATOM
   1 C1             0.2696     1.0089     0.9781 C.ar    
   2 C2            -0.2284     0.3419    -0.1261 C.ar    
   3 C3             0.5754     0.1322    -1.2336 C.ar    
   4 C4             1.8832     0.5901    -1.2405 C.ar    
   5 C5             2.3886     1.2609    -0.1348 C.ar    
   6 C6             1.5772     1.4708     0.9791 C.ar    
   7 N7             2.0818     2.1476     2.0976 N.am    
   8 S8             1.6124     1.6959     3.6201 S.o2    
   9 C9             2.1538    -0.0292     3.7675 C.3     
  10 O10            2.3708     2.5320     4.4832 O.2     
  11 O11            0.1939     1.7722     3.5865 O.2     
  12 F12            0.0838    -0.5205    -2.3095 F       
  13 F13            2.6661     0.3836    -2.3220 F       
  14 N14            3.7112     1.7250    -0.1383 N.pl3   
  15 C15            4.7580     0.8562     0.1863 C.ar    
  16 C16            6.0559     1.3429     0.3079 C.ar    
  17 C17            4.5036    -0.4927     0.3934 C.ar    
  18 C18            5.5397    -1.3490     0.7139 C.ar    
  19 C19            6.8300    -0.8643     0.8287 C.ar    
  20 C20            7.0877     0.4808     0.6288 C.ar    
  21 F21            6.3072     2.6558     0.1122 F       
  22 Br22           8.2441    -2.0407     1.2676 Br      
  23 C23            1.7108    -0.7042     5.0763 C.3     
  24 C24            1.4307    -1.9638     4.2398 C.3     
  25 C25            1.2399    -1.0263     3.0358 C.3     
  26 H26           -0.3617     1.1743     1.8386 H       
  27 H27           -1.2471    -0.0167    -0.1243 H       
  28 H28            2.7061     2.8807     1.9800 H       
  29 H29            3.2127    -0.1610     3.5449 H       
  30 H30            3.9005     2.6488    -0.3658 H       
  31 H31            3.4965    -0.8725     0.3044 H       
  32 H32            5.3415    -2.3983     0.8753 H       
  33 H33            8.0963     0.8563     0.7188 H       
  34 H34            2.5181    -0.8298     5.7978 H       
  35 H35            0.8154    -0.2627     5.5139 H       
  36 H36            2.2915    -2.6257     4.1456 H       
  37 H37            0.5216    -2.4891     4.5325 H       
  38 H38            0.2158    -0.6729     2.9157 H       
  39 H39            1.6670    -1.4120     2.1101 H       
@<TRIPOS>BOND
   1    1    2 ar
   2    1    6 ar
   3    1   26 1
   4    2    3 ar
   5    2   27 1
   6    3    4 ar
   7    3   12 1
   8    4    5 ar
   9    4   13 1
  10    5    6 ar
  11    5   14 1
  12    6    7 1
  13    7    8 am
  14    7   28 1
  15    8    9 1
  16    8   10 2
  17    8   11 2
  18    9   23 1
  19    9   25 1
  20    9   29 1
  21   14   15 1
  22   14   30 1
  23   15   16 ar
  24   15   17 ar
  25   16   21 1
  26   16   20 ar
  27   17   18 ar
  28   17   31 1
  29   18   19 ar
  30   18   32 1
  31   19   20 ar
  32   19   22 1
  33   20   33 1
  34   23   24 1
  35   23   34 1
  36   23   35 1
  37   24   25 1
  38   24   36 1
  39   24   37 1
  40   25   38 1
  41   25   39 1

#	End of record

