#	Name: ASD03330653
#	Creating user name:	WinNT
#	Creation time:	15. 06. 2019 20:37

#	Modifying user name:	WinNT
#	Modification time:	15. 06. 2019 20:37

#	Program:	/corina/corina34_cracker 3.40 0067  02.08.2006

@<TRIPOS>MOLECULE
ASD03330653
  62   64    0    0    0
SMALL
NO_CHARGES


@<TRIPOS>ATOM
   1 C1             0.0477     1.8705     1.6627 C.2     
   2 N2            -0.0056     0.5699     2.0595 N.pl3   
   3 C3             1.3300     2.1212     1.2816 C.2     
   4 N4             2.0373     0.9722     1.4328 N.2     
   5 C5             1.2393     0.0375     1.8937 C.2     
   6 C6             1.6255    -1.3603     2.1848 C.2     
   7 C7             1.8558     3.4078     0.7929 C.2     
   8 O8             1.1184     4.3707     0.7012 O.2     
   9 C9             3.6767     4.7971    -0.0384 C.3     
  10 N10            3.1538     3.5178     0.4475 N.am    
  11 C11            3.4183     4.9157    -1.5418 C.3     
  12 C12            1.9227     4.7476    -1.8170 C.3     
  13 C13            3.8754     6.2915    -2.0309 C.3     
  14 C14            4.1985     3.8266    -2.2808 C.3     
  15 C15            5.1592     4.8659     0.2234 C.2     
  16 N16            5.8065     6.0441     0.1271 N.am    
  17 O17            5.7697     3.8611     0.5209 O.2     
  18 C18            7.2592     6.0987     0.3084 C.3     
  19 C19           -1.1941    -0.1108     2.5814 C.3     
  20 C20           -2.3886     0.1963     1.6729 C.3     
  21 C21           -3.0660     1.4845     2.1290 C.3     
  22 N22           -2.0880     2.4332     2.6649 N.3     
  23 C23           -1.1125     2.8316     1.6392 C.3     
  24 C24           -2.7554     3.6080     3.2413 C.3     
  25 C25            1.3723    -2.1168     3.3655 C.2     
  26 N26            1.8965    -3.2891     3.1654 N.2     
  27 O27            2.4181    -3.3729     2.0787 O.3     
  28 C28            2.3056    -2.2353     1.3814 C.2     
  29 C29            2.8311    -1.9686    -0.0056 C.3     
  30 C30            0.6433    -1.6506     4.5993 C.3     
  31 H31            3.1775     5.6147     0.4816 H       
  32 H32            3.7419     2.7498     0.5206 H       
  33 H33            1.3669     5.5235    -1.2905 H       
  34 H34            1.7386     4.8321    -2.8881 H       
  35 H35            1.5971     3.7674    -1.4686 H       
  36 H36            4.9063     6.4631    -1.7212 H       
  37 H37            3.8114     6.3302    -3.1183 H       
  38 H38            3.2341     7.0612    -1.6015 H       
  39 H39            3.8728     2.8465    -1.9324 H       
  40 H40            4.0144     3.9111    -3.3518 H       
  41 H41            5.2640     3.9463    -2.0847 H       
  42 H42            5.3105     6.8559    -0.0623 H       
  43 H43            7.5148     5.7385     1.3049 H       
  44 H44            7.7426     5.4707    -0.4400 H       
  45 H45            7.6011     7.1275     0.1951 H       
  46 H46           -1.0187    -1.1864     2.6013 H       
  47 H47           -1.4034     0.2439     3.5906 H       
  48 H48           -2.0423     0.3129     0.6459 H       
  49 H49           -3.1025    -0.6259     1.7225 H       
  50 H50           -3.5777     1.9392     1.2808 H       
  51 H51           -3.7972     1.2495     2.9025 H       
  52 H52           -0.7550     3.8398     1.8484 H       
  53 H53           -1.5856     2.8078     0.6576 H       
  54 H54           -3.4143     3.2914     4.0498 H       
  55 H55           -2.0059     4.2964     3.6320 H       
  56 H56           -3.3410     4.1081     2.4699 H       
  57 H57            3.4088    -2.8277    -0.3467 H       
  58 H58            1.9953    -1.7999    -0.6846 H       
  59 H59            3.4694    -1.0852     0.0113 H       
  60 H60           -0.4202    -1.8663     4.4961 H       
  61 H61            1.0367    -2.1714     5.4723 H       
  62 H62            0.7861    -0.5770     4.7218 H       
@<TRIPOS>BOND
   1    1    2 1
   2    1    3 2
   3    1   23 1
   4    2   19 1
   5    2    5 1
   6    3    4 1
   7    3    7 1
   8    4    5 2
   9    5    6 1
  10    6   25 1
  11    6   28 2
  12    7    8 2
  13    7   10 am
  14    9   10 1
  15    9   11 1
  16    9   15 1
  17    9   31 1
  18   10   32 1
  19   11   12 1
  20   11   13 1
  21   11   14 1
  22   12   33 1
  23   12   34 1
  24   12   35 1
  25   13   36 1
  26   13   37 1
  27   13   38 1
  28   14   39 1
  29   14   40 1
  30   14   41 1
  31   15   16 am
  32   15   17 2
  33   16   18 1
  34   16   42 1
  35   18   43 1
  36   18   44 1
  37   18   45 1
  38   19   20 1
  39   19   46 1
  40   19   47 1
  41   20   21 1
  42   20   48 1
  43   20   49 1
  44   21   22 1
  45   21   50 1
  46   21   51 1
  47   22   23 1
  48   22   24 1
  49   23   52 1
  50   23   53 1
  51   24   54 1
  52   24   55 1
  53   24   56 1
  54   25   26 2
  55   25   30 1
  56   26   27 1
  57   27   28 1
  58   28   29 1
  59   29   57 1
  60   29   58 1
  61   29   59 1
  62   30   60 1
  63   30   61 1
  64   30   62 1

#	End of record

