#	Name: ASD08170099
#	Creating user name:	WinNT
#	Creation time:	15. 06. 2019 21:17

#	Modifying user name:	WinNT
#	Modification time:	15. 06. 2019 21:17

#	Program:	/corina/corina34_cracker 3.40 0067  02.08.2006

@<TRIPOS>MOLECULE
ASD08170099
  66   69    0    0    0
SMALL
NO_CHARGES


@<TRIPOS>ATOM
   1 C1            -0.0187     1.5258     0.0104 C.3     
   2 C2             0.0021    -0.0041     0.0020 C.3     
   3 C3             1.4167     2.0553    -0.0004 C.3     
   4 C4             1.3960     3.5852     0.0080 C.3     
   5 C5             2.8098     4.1068    -0.0027 C.2     
   6 C6            -1.4117    -0.5257     0.0127 C.2     
   7 S7             3.7994     4.4593     1.4143 S.3     
   8 C8             5.0770     4.9390     0.3786 C.2     
   9 N9             4.6867     4.8059    -0.8531 N.2     
  10 N10            3.5185     4.3715    -1.0541 N.2     
  11 S11           -2.3742    -0.8935     1.4445 S.3     
  12 N12           -2.1404    -0.7792    -1.0277 N.2     
  13 N13           -3.3061    -1.2119    -0.8091 N.2     
  14 C14           -3.6713    -1.3622     0.4283 C.2     
  15 N15           -4.9107    -1.8251     0.8572 N.am    
  16 C16           -5.8536    -2.1613    -0.0452 C.2     
  17 O17           -5.6213    -2.0602    -1.2312 O.2     
  18 N18            6.3249     5.3958     0.7887 N.am    
  19 C19            7.2495     5.7444    -0.1278 C.2     
  20 C20            8.6017     6.2394     0.3166 C.3     
  21 O21            6.9932     5.6598    -1.3102 O.2     
  22 C22           -7.1965    -2.6628     0.4196 C.3     
  23 C23           -7.0223    -3.9804     1.1300 C.ar    
  24 C24           -7.0064    -4.0239     2.5115 C.ar    
  25 C25            8.4424     7.5471     1.0485 C.ar    
  26 C26            8.4544     7.5715     2.4306 C.ar    
  27 O27           -8.0554    -2.8399    -0.7087 O.3     
  28 O28            9.4376     6.4321    -0.8263 O.3     
  29 C29           -8.8215    -1.6810    -1.0436 C.3     
  30 C30           10.1964     5.2779    -1.1927 C.3     
  31 C31           -6.8466    -5.2325     3.1632 C.ar    
  32 C32           -6.7031    -6.3977     2.4332 C.ar    
  33 C33           -6.7199    -6.3542     1.0517 C.ar    
  34 C34           -6.8841    -5.1462     0.4001 C.ar    
  35 C35            8.2898     8.7228     0.3378 C.ar    
  36 C36            8.1436     9.9223     1.0091 C.ar    
  37 C37            8.1496     9.9460     2.3913 C.ar    
  38 C38            8.3082     8.7709     3.1020 C.ar    
  39 H39           -0.5459     1.8868    -0.8726 H       
  40 H40           -0.5289     1.8773     0.9072 H       
  41 H41            0.5123    -0.3556    -0.8948 H       
  42 H42            0.5293    -0.3651     0.8851 H       
  43 H43            1.9439     1.6943     0.8826 H       
  44 H44            1.9269     1.7038    -0.8972 H       
  45 H45            0.8688     3.9463    -0.8751 H       
  46 H46            0.8858     3.9367     0.9048 H       
  47 H47           -5.0964    -1.9059     1.8058 H       
  48 H48            6.5298     5.4635     1.7344 H       
  49 H49            9.0575     5.5047     0.9803 H       
  50 H50           -7.6388    -1.9375     1.1025 H       
  51 H51           -7.1185    -3.1137     3.0818 H       
  52 H52            8.5778     6.6534     2.9858 H       
  53 H53           -9.4471    -1.8968    -1.9097 H       
  54 H54           -9.4530    -1.4063    -0.1987 H       
  55 H55           -8.1488    -0.8560    -1.2778 H       
  56 H56           10.8447     4.9915    -0.3646 H       
  57 H57            9.5188     4.4562    -1.4246 H       
  58 H58           10.8044     5.5056    -2.0682 H       
  59 H59           -6.8334    -5.2665     4.2426 H       
  60 H60           -6.5775    -7.3418     2.9424 H       
  61 H61           -6.6074    -7.2645     0.4814 H       
  62 H62           -6.8972    -5.1122    -0.6793 H       
  63 H63            8.2851     8.7044    -0.7421 H       
  64 H64            8.0251    10.8410     0.4539 H       
  65 H65            8.0357    10.8831     2.9158 H       
  66 H66            8.3129     8.7894     4.1818 H       
@<TRIPOS>BOND
   1    1    2 1
   2    1    3 1
   3    1   39 1
   4    1   40 1
   5    2    6 1
   6    2   41 1
   7    2   42 1
   8    3    4 1
   9    3   43 1
  10    3   44 1
  11    4    5 1
  12    4   45 1
  13    4   46 1
  14    5    7 1
  15    5   10 2
  16    6   11 1
  17    6   12 2
  18    7    8 1
  19    8    9 2
  20    8   18 1
  21    9   10 1
  22   11   14 1
  23   12   13 1
  24   13   14 2
  25   14   15 1
  26   15   16 am
  27   15   47 1
  28   16   17 2
  29   16   22 1
  30   18   19 am
  31   18   48 1
  32   19   21 2
  33   19   20 1
  34   20   25 1
  35   20   28 1
  36   20   49 1
  37   22   23 1
  38   22   27 1
  39   22   50 1
  40   23   24 ar
  41   23   34 ar
  42   24   31 ar
  43   24   51 1
  44   25   26 ar
  45   25   35 ar
  46   26   38 ar
  47   26   52 1
  48   27   29 1
  49   28   30 1
  50   29   53 1
  51   29   54 1
  52   29   55 1
  53   30   56 1
  54   30   57 1
  55   30   58 1
  56   31   32 ar
  57   31   59 1
  58   32   33 ar
  59   32   60 1
  60   33   34 ar
  61   33   61 1
  62   34   62 1
  63   35   36 ar
  64   35   63 1
  65   36   37 ar
  66   36   64 1
  67   37   38 ar
  68   37   65 1
  69   38   66 1

#	End of record

