#	Name: ASD01913164
#	Creating user name:	WinNT
#	Creation time:	15. 06. 2019 20:01

#	Modifying user name:	WinNT
#	Modification time:	15. 06. 2019 20:01

#	Program:	/corina/corina34_cracker 3.40 0067  02.08.2006

@<TRIPOS>MOLECULE
ASD01913164
  49   51    0    0    0
SMALL
NO_CHARGES


@<TRIPOS>ATOM
   1 C1             0.1708     1.3018     0.0877 C.ar    
   2 C2             0.1610    -0.0820     0.0819 C.ar    
   3 C3            -1.0456    -0.7650     0.0619 C.ar    
   4 C4            -2.2403    -0.0592     0.0478 C.ar    
   5 C5            -2.2264     1.3221     0.0537 C.ar    
   6 O6            -1.0582    -2.1239     0.0556 O.3     
   7 C7            -2.3372    -2.7608     0.0348 C.3     
   8 C8            -2.1508    -4.2794     0.0306 C.3     
   9 C9            -3.4996    -4.9511     0.0086 C.2     
  10 N10           -3.5825    -6.2963     0.0014 N.am    
  11 C11           -4.8888    -6.9720    -0.0199 C.3     
  12 C12           -4.8867    -7.9995    -1.1568 C.3     
  13 N13           -3.7288    -8.8907    -1.0049 N.3     
  14 C14           -2.4664    -8.1489    -1.1234 C.3     
  15 C15           -2.3692    -7.1275     0.0086 C.3     
  16 O16           -4.5105    -4.2811    -0.0026 O.2     
  17 C17           -3.7807    -9.9354    -1.9208 C.ar    
  18 C18           -2.8367   -10.0215    -2.9354 C.ar    
  19 C19           -2.8905   -11.0595    -3.8440 C.ar    
  20 C20           -3.8832   -12.0214    -3.7523 C.ar    
  21 C21           -4.8290   -11.9527    -2.7520 C.ar    
  22 C22           -4.7844   -10.9120    -1.8212 C.ar    
  23 F23            1.3455     1.9689     0.1072 F       
  24 C24           -1.0232     2.0029     0.0679 C.ar    
  25 C25           -5.9065   -13.0022    -2.6592 C.3     
  26 F26           -5.7397   -13.9341    -3.6892 F       
  27 F27           -5.8190   -13.6523    -1.4235 F       
  28 F28           -7.1609   -12.3945    -2.7787 F       
  29 C29           -5.7636   -10.8350    -0.7792 C.1     
  30 N30           -6.5405   -10.7738     0.0475 N.1     
  31 H31            1.0920    -0.6293     0.0925 H       
  32 H32           -3.1809    -0.5897     0.0318 H       
  33 H33           -3.1565     1.8709     0.0427 H       
  34 H34           -2.9039    -2.4668     0.9182 H       
  35 H35           -2.8789    -2.4588    -0.8616 H       
  36 H36           -1.5840    -4.5735    -0.8528 H       
  37 H37           -1.6090    -4.5814     0.9269 H       
  38 H38           -5.0547    -7.4783     0.9310 H       
  39 H39           -5.6774    -6.2391    -0.1903 H       
  40 H40           -5.8046    -8.5861    -1.1185 H       
  41 H41           -4.8247    -7.4825    -2.1143 H       
  42 H42           -1.6290    -8.8439    -1.0609 H       
  43 H43           -2.4380    -7.6298    -2.0814 H       
  44 H44           -1.4916    -6.4983    -0.1402 H       
  45 H45           -2.2935    -7.6461     0.9643 H       
  46 H46           -2.0598    -9.2755    -3.0140 H       
  47 H47           -2.1541   -11.1219    -4.6316 H       
  48 H48           -3.9164   -12.8291    -4.4684 H       
  49 H49           -1.0147     3.0828     0.0728 H       
@<TRIPOS>BOND
   1    1    2 ar
   2    1   23 1
   3    1   24 ar
   4    2    3 ar
   5    2   31 1
   6    3    4 ar
   7    3    6 1
   8    4    5 ar
   9    4   32 1
  10    5   24 ar
  11    5   33 1
  12    6    7 1
  13    7    8 1
  14    7   34 1
  15    7   35 1
  16    8    9 1
  17    8   36 1
  18    8   37 1
  19    9   10 am
  20    9   16 2
  21   10   11 1
  22   10   15 1
  23   11   12 1
  24   11   38 1
  25   11   39 1
  26   12   13 1
  27   12   40 1
  28   12   41 1
  29   13   14 1
  30   13   17 1
  31   14   15 1
  32   14   42 1
  33   14   43 1
  34   15   44 1
  35   15   45 1
  36   17   18 ar
  37   17   22 ar
  38   18   19 ar
  39   18   46 1
  40   19   20 ar
  41   19   47 1
  42   20   21 ar
  43   20   48 1
  44   21   22 ar
  45   21   25 1
  46   22   29 1
  47   24   49 1
  48   25   26 1
  49   25   27 1
  50   25   28 1
  51   29   30 3

#	End of record

