#	Name: ASD08070523
#	Creating user name:	WinNT
#	Creation time:	15. 06. 2019 21:15

#	Modifying user name:	WinNT
#	Modification time:	15. 06. 2019 21:15

#	Program:	/corina/corina34_cracker 3.40 0067  02.08.2006

@<TRIPOS>MOLECULE
ASD08070523
  39   40    0    0    0
SMALL
NO_CHARGES


@<TRIPOS>ATOM
   1 C1            -0.0168     1.3859     0.0097 C.ar    
   2 C2             0.0021    -0.0041     0.0020 C.ar    
   3 C3             1.2122    -0.6866    -0.0132 C.ar    
   4 C4             2.4000     0.0132    -0.0207 C.ar    
   5 C5             2.3847     1.4120    -0.0131 C.ar    
   6 C6             1.1646     2.0931     0.0022 C.ar    
   7 C7             3.6528     2.1658    -0.0206 C.2     
   8 O8             4.7134     1.5713    -0.0335 O.2     
   9 N9             3.6357     3.5135    -0.0132 N.am    
  10 C10            4.8950     4.2620    -0.0207 C.3     
  11 O11           -1.1651    -0.6965     0.0099 O.3     
  12 C12           -1.0734    -2.1225     0.0013 C.3     
  13 Cl13           3.9118    -0.8399    -0.0392 Cl      
  14 C14            4.6634     5.6288    -0.6118 C.ar    
  15 C15            5.6029     6.1828    -1.4610 C.ar    
  16 C16            5.4108     4.4068     1.4124 C.3     
  17 C17            3.5088     6.3261    -0.3091 C.ar    
  18 C18            3.2964     7.5799    -0.8512 C.ar    
  19 C19            4.2387     8.1365    -1.6957 C.ar    
  20 C20            5.3905     7.4366    -2.0032 C.ar    
  21 C21            4.0069     9.5030    -2.2871 C.3     
  22 H22           -0.9599     1.9121     0.0170 H       
  23 H23            1.2224    -1.7665    -0.0187 H       
  24 H24            1.1483     3.1730     0.0078 H       
  25 H25            2.7896     3.9877    -0.0029 H       
  26 H26            5.6320     3.7272    -0.6198 H       
  27 H27           -0.5462    -2.4474    -0.8957 H       
  28 H28           -0.5286    -2.4569     0.8842 H       
  29 H29           -2.0756    -2.5511     0.0089 H       
  30 H30            6.5030     5.6363    -1.7008 H       
  31 H31            5.5783     3.4183     1.8399 H       
  32 H32            6.3477     4.9638     1.4068 H       
  33 H33            4.6737     4.9416     2.0115 H       
  34 H34            2.7726     5.8913     0.3507 H       
  35 H35            2.3940     8.1244    -0.6153 H       
  36 H36            6.1267     7.8714    -2.6629 H       
  37 H37            4.4208    10.2615    -1.6227 H       
  38 H38            4.4956     9.5658    -3.2594 H       
  39 H39            2.9365     9.6702    -2.4071 H       
@<TRIPOS>BOND
   1    1    2 ar
   2    1    6 ar
   3    1   22 1
   4    2    3 ar
   5    2   11 1
   6    3    4 ar
   7    3   23 1
   8    4    5 ar
   9    4   13 1
  10    5    6 ar
  11    5    7 1
  12    6   24 1
  13    7    8 2
  14    7    9 am
  15    9   10 1
  16    9   25 1
  17   10   14 1
  18   10   16 1
  19   10   26 1
  20   11   12 1
  21   12   27 1
  22   12   28 1
  23   12   29 1
  24   14   15 ar
  25   14   17 ar
  26   15   20 ar
  27   15   30 1
  28   16   31 1
  29   16   32 1
  30   16   33 1
  31   17   18 ar
  32   17   34 1
  33   18   19 ar
  34   18   35 1
  35   19   20 ar
  36   19   21 1
  37   20   36 1
  38   21   37 1
  39   21   38 1
  40   21   39 1

#	End of record

