#	Name: ASD01948057
#	Creating user name:	WinNT
#	Creation time:	15. 06. 2019 20:13

#	Modifying user name:	WinNT
#	Modification time:	15. 06. 2019 20:13

#	Program:	/corina/corina34_cracker 3.40 0067  02.08.2006

@<TRIPOS>MOLECULE
ASD01948057
  55   58    0    0    0
SMALL
NO_CHARGES


@<TRIPOS>ATOM
   1 C1             0.0243     1.7818     1.1945 C.3     
   2 C2             0.4512     0.3967     1.6848 C.3     
   3 C3             1.5040     1.4795     1.4394 C.3     
   4 S4            -0.5270     1.9276    -0.5275 S.o2    
   5 O5             0.5431     1.6465    -1.4191 O.2     
   6 O6            -1.8003     1.3199    -0.6966 O.2     
   7 N7            -0.8159     3.5452    -0.7333 N.am    
   8 C8             1.5482     3.9974    -0.6998 C.2     
   9 C9             0.2580     4.4583    -0.7351 C.2     
  10 C10            0.0042     5.8397    -0.7737 C.2     
  11 C11            1.0755     6.7244    -0.7716 C.2     
  12 C12            2.3720     6.2153    -0.7373 C.2     
  13 N13            2.5852     4.8872    -0.7119 N.am    
  14 O14            1.9920     2.7138    -0.6440 O.3     
  15 C15            3.8447     4.1164    -0.6997 C.3     
  16 C16            3.3658     2.6941    -1.0702 C.3     
  17 O17            3.3240     6.9820    -0.7308 O.2     
  18 C18            0.8388     8.2123    -0.8063 C.3     
  19 N19           -1.2983     6.3138    -0.8138 N.pl3   
  20 C20           -2.1488     5.9349    -1.8581 C.ar    
  21 C21           -3.4551     6.4117    -1.9012 C.ar    
  22 C22           -4.2923     6.0348    -2.9347 C.ar    
  23 C23           -3.8316     5.1848    -3.9246 C.ar    
  24 C24           -2.5336     4.7094    -3.8833 C.ar    
  25 C25           -1.6895     5.0870    -2.8564 C.ar    
  26 I26           -5.1035     4.6160    -5.4892 I       
  27 F27           -3.9049     7.2412    -0.9344 F       
  28 C28           -0.6846     2.6976     2.1944 C.3     
  29 C29           -0.5108     4.1551     1.7630 C.3     
  30 C30           -1.1890     5.0730     2.7821 C.3     
  31 O31           -1.1282     6.4241     2.3209 O.3     
  32 O32            0.8817     4.4683     1.6926 O.3     
  33 H33            0.2271     0.1379     2.7196 H       
  34 H34            0.4008    -0.4269     0.9725 H       
  35 H35            2.1462     1.3682     0.5658 H       
  36 H36            1.9725     1.9330     2.3129 H       
  37 H37           -1.7241     3.8643    -0.8526 H       
  38 H38            4.5400     4.4982    -1.4473 H       
  39 H39            4.2961     4.1272     0.2924 H       
  40 H40            3.9310     1.9397    -0.5229 H       
  41 H41            3.4362     2.5289    -2.1453 H       
  42 H42            0.6744     8.5777     0.2074 H       
  43 H43            1.7094     8.7088    -1.2348 H       
  44 H44           -0.0386     8.4264    -1.4164 H       
  45 H45           -1.6197     6.9082    -0.1179 H       
  46 H46           -5.3067     6.4038    -2.9694 H       
  47 H47           -2.1776     4.0456    -4.6573 H       
  48 H48           -0.6745     4.7191    -2.8283 H       
  49 H49           -1.7460     2.4513     2.2235 H       
  50 H50           -0.2519     2.5578     3.1851 H       
  51 H51           -0.9660     4.3009     0.7834 H       
  52 H52           -2.2310     4.7763     2.9014 H       
  53 H53           -0.6764     4.9929     3.7408 H       
  54 H54           -1.5400     7.0628     2.9188 H       
  55 H55            1.3519     4.3607     2.5307 H       
@<TRIPOS>BOND
   1    1    2 1
   2    1    3 1
   3    1    4 1
   4    1   28 1
   5    2    3 1
   6    2   33 1
   7    2   34 1
   8    3   35 1
   9    3   36 1
  10    4    5 2
  11    4    6 2
  12    4    7 am
  13    7    9 1
  14    7   37 1
  15    8    9 2
  16    8   13 1
  17    8   14 1
  18    9   10 1
  19   10   11 2
  20   10   19 1
  21   11   12 1
  22   11   18 1
  23   12   13 am
  24   12   17 2
  25   13   15 1
  26   14   16 1
  27   15   16 1
  28   15   38 1
  29   15   39 1
  30   16   40 1
  31   16   41 1
  32   18   42 1
  33   18   43 1
  34   18   44 1
  35   19   20 1
  36   19   45 1
  37   20   21 ar
  38   20   25 ar
  39   21   22 ar
  40   21   27 1
  41   22   23 ar
  42   22   46 1
  43   23   24 ar
  44   23   26 1
  45   24   25 ar
  46   24   47 1
  47   25   48 1
  48   28   29 1
  49   28   49 1
  50   28   50 1
  51   29   30 1
  52   29   32 1
  53   29   51 1
  54   30   31 1
  55   30   52 1
  56   30   53 1
  57   31   54 1
  58   32   55 1

#	End of record

