#	Name: ASD01811457
#	Creating user name:	WinNT
#	Creation time:	15. 06. 2019 19:26

#	Modifying user name:	WinNT
#	Modification time:	15. 06. 2019 19:26

#	Program:	/corina/corina34_cracker 3.40 0067  02.08.2006

@<TRIPOS>MOLECULE
ASD01811457
  70   74    0    0    0
SMALL
NO_CHARGES


@<TRIPOS>ATOM
   1 C1            -8.0662     2.1508     2.4295 C.1     
   2 C2            -6.9007     2.9521     2.2059 C.ar    
   3 C3            -5.6482     2.5015     2.6278 C.ar    
   4 C4            -4.5296     3.2786     2.4092 C.ar    
   5 C5            -4.6467     4.5021     1.7739 C.ar    
   6 C6            -5.8847     4.9550     1.3536 C.ar    
   7 C7            -7.0107     4.1851     1.5598 C.ar    
   8 N8            -8.9908     1.5151     2.6069 N.1     
   9 N9            -1.9744     7.7767     1.5366 N.am    
  10 C10           -2.4827     7.2717     0.2539 C.3     
  11 C11           -3.7408     6.4379     0.5160 C.3     
  12 C12           -3.4202     5.3457     1.5390 C.3     
  13 C13           -2.9850     5.9906     2.8568 C.3     
  14 C14           -1.7183     6.8193     2.6213 C.3     
  15 F15           -2.3863     4.5393     1.0512 F       
  16 C16           -1.7422     9.0926     1.7131 C.2     
  17 C17           -1.3195     9.5977     3.0369 C.ar    
  18 C18           -2.0500    10.6083     3.6664 C.ar    
  19 C19           -1.6565    11.0809     4.9023 C.ar    
  20 C20           -0.5395    10.5588     5.5245 C.ar    
  21 C21            0.1996     9.5484     4.9064 C.ar    
  22 C22           -0.1951     9.0628     3.6618 C.ar    
  23 O23           -1.8803     9.8640     0.7839 O.2     
  24 C24           -3.2698    11.1843     2.9947 C.3     
  25 C25           -0.1172    11.0812     6.8735 C.3     
  26 C26            0.9428    12.1691     6.6901 C.3     
  27 C27            4.3173     6.8057     5.9519 C.3     
  28 C28            3.1767     7.7917     6.0030 C.2     
  29 C29            2.9550     8.6439     7.0298 C.2     
  30 C30            3.8205     8.7336     8.2626 C.3     
  31 C31            4.6629     7.4567     8.3701 C.3     
  32 N32            5.2376     7.1446     7.0528 N.am    
  33 C33            1.3960     8.9908     5.5742 C.2     
  34 N34            2.2016     8.0044     5.0783 N.pl3   
  35 N35            1.8657     9.3603     6.7471 N.2     
  36 C36            6.5709     7.1674     6.8572 C.2     
  37 O37            7.3180     7.3589     7.7932 O.2     
  38 C38            7.1334     6.9550     5.4753 C.3     
  39 H39           -5.5555     1.5470     3.1244 H       
  40 H40           -3.5603     2.9313     2.7349 H       
  41 H41           -5.9691     5.9112     0.8587 H       
  42 H42           -7.9758     4.5375     1.2270 H       
  43 H43           -2.7292     8.1104    -0.3972 H       
  44 H44           -1.7240     6.6491    -0.2202 H       
  45 H45           -4.5292     7.0817     0.9062 H       
  46 H46           -4.0732     5.9783    -0.4148 H       
  47 H47           -3.7804     6.6386     3.2249 H       
  48 H48           -2.7792     5.2127     3.5921 H       
  49 H49           -0.8972     6.1599     2.3402 H       
  50 H50           -1.4604     7.3596     3.5322 H       
  51 H51           -2.2245    11.8626     5.3847 H       
  52 H52            0.3706     8.2782     3.1814 H       
  53 H53           -4.1356    10.5604     3.2169 H       
  54 H54           -3.4454    12.1945     3.3645 H       
  55 H55           -3.1109    11.2145     1.9168 H       
  56 H56           -0.9821    11.4997     7.3881 H       
  57 H57            0.2981    10.2654     7.4653 H       
  58 H58            1.8078    11.7506     6.1755 H       
  59 H59            0.5276    12.9849     6.0983 H       
  60 H60            1.2483    12.5470     7.6658 H       
  61 H61            3.9381     5.7924     6.0839 H       
  62 H62            4.8358     6.8872     4.9965 H       
  63 H63            4.4780     9.5994     8.1850 H       
  64 H64            3.1892     8.8300     9.1459 H       
  65 H65            5.4662     7.6099     9.0908 H       
  66 H66            4.0318     6.6304     8.6972 H       
  67 H67            2.0981     7.5446     4.2305 H       
  68 H68            6.3166     6.8913     4.7564 H       
  69 H69            7.7824     7.7910     5.2148 H       
  70 H70            7.7080     6.0290     5.4553 H       
@<TRIPOS>BOND
   1    1    2 1
   2    1    8 3
   3    2    3 ar
   4    2    7 ar
   5    3    4 ar
   6    3   39 1
   7    4    5 ar
   8    4   40 1
   9    5    6 ar
  10    5   12 1
  11    6    7 ar
  12    6   41 1
  13    7   42 1
  14    9   10 1
  15    9   14 1
  16    9   16 am
  17   10   11 1
  18   10   43 1
  19   10   44 1
  20   11   12 1
  21   11   45 1
  22   11   46 1
  23   12   13 1
  24   12   15 1
  25   13   14 1
  26   13   47 1
  27   13   48 1
  28   14   49 1
  29   14   50 1
  30   16   17 1
  31   16   23 2
  32   17   18 ar
  33   17   22 ar
  34   18   19 ar
  35   18   24 1
  36   19   20 ar
  37   19   51 1
  38   20   21 ar
  39   20   25 1
  40   21   22 ar
  41   21   33 1
  42   22   52 1
  43   24   53 1
  44   24   54 1
  45   24   55 1
  46   25   26 1
  47   25   56 1
  48   25   57 1
  49   26   58 1
  50   26   59 1
  51   26   60 1
  52   27   28 1
  53   27   32 1
  54   27   61 1
  55   27   62 1
  56   28   29 2
  57   28   34 1
  58   29   30 1
  59   29   35 1
  60   30   31 1
  61   30   63 1
  62   30   64 1
  63   31   32 1
  64   31   65 1
  65   31   66 1
  66   32   36 am
  67   33   34 1
  68   33   35 2
  69   34   67 1
  70   36   37 2
  71   36   38 1
  72   38   68 1
  73   38   69 1
  74   38   70 1

#	End of record

