#	Name: ASD01150375
#	Creating user name:	WinNT
#	Creation time:	15. 06. 2019 19:04

#	Modifying user name:	WinNT
#	Modification time:	15. 06. 2019 19:04

#	Program:	/corina/corina34_cracker 3.40 0067  02.08.2006

@<TRIPOS>MOLECULE
ASD01150375
  46   49    0    0    0
SMALL
NO_CHARGES


@<TRIPOS>ATOM
   1 C1             1.9067     1.4037     0.9630 C.ar    
   2 C2             1.9310     0.0223     0.9590 C.ar    
   3 C3             1.2291    -0.6820     0.0007 C.ar    
   4 C4             0.4937    -0.0001    -0.9667 C.ar    
   5 C5             0.4684     1.3919    -0.9639 C.ar    
   6 C6             1.1754     2.0922     0.0021 C.ar    
   7 N7             1.1527     3.4914     0.0093 N.am    
   8 C8            -0.0243     4.1355    -0.0784 C.2     
   9 N9            -0.0830     5.4803    -0.0743 N.am    
  10 C10            1.0507     6.2059     0.0185 C.2     
  11 C11            2.3413     5.5074     0.1147 C.2     
  12 N12            2.3552     4.2004     0.1136 N.2     
  13 O13            1.0059     7.4221     0.0220 O.2     
  14 C14           -1.3790     6.1566    -0.1712 C.3     
  15 O15           -1.0530     3.4924    -0.1633 O.2     
  16 C16           -1.9340     6.3793     1.2121 C.ar    
  17 C17           -1.6379     7.5436     1.8961 C.ar    
  18 C18           -2.1466     7.7484     3.1648 C.ar    
  19 C19           -2.9523     6.7880     3.7502 C.ar    
  20 C20           -3.2483     5.6230     3.0651 C.ar    
  21 C21           -2.7436     5.4218     1.7942 C.ar    
  22 Cl22          -3.5912     7.0443     5.3438 Cl      
  23 O23            3.5004     6.2095     0.2094 O.3     
  24 C24            4.7106     5.4549     0.2991 C.3     
  25 C25           -0.2604    -0.7559    -1.9979 C.2     
  26 N26           -0.9864    -0.2456    -2.9582 N.2     
  27 O27           -1.4704    -1.1315    -3.6306 O.3     
  28 C28           -1.0938    -2.3234    -3.1570 C.2     
  29 N29           -0.3203    -2.1008    -2.1237 N.2     
  30 C30           -1.4810    -3.6700    -3.7117 C.3     
  31 H31            2.4537     1.9499     1.7172 H       
  32 H32            2.5009    -0.5083     1.7074 H       
  33 H33            1.2505    -1.7618     0.0008 H       
  34 H34           -0.0999     1.9248    -1.7119 H       
  35 H35           -1.2512     7.1171    -0.6704 H       
  36 H36           -2.0696     5.5381    -0.7445 H       
  37 H37           -1.0086     8.2930     1.4393 H       
  38 H38           -1.9149     8.6579     3.6993 H       
  39 H39           -3.8772     4.8730     3.5215 H       
  40 H40           -2.9745     4.5125     1.2593 H       
  41 H41            4.6788     4.8213     1.1854 H       
  42 H42            4.8171     4.8321    -0.5892 H       
  43 H43            5.5589     6.1357     0.3693 H       
  44 H44           -2.1289    -3.5336    -4.5777 H       
  45 H45           -0.5836    -4.2113    -4.0111 H       
  46 H46           -2.0108    -4.2390    -2.9477 H       
@<TRIPOS>BOND
   1    1    2 ar
   2    1    6 ar
   3    1   31 1
   4    2    3 ar
   5    2   32 1
   6    3    4 ar
   7    3   33 1
   8    4    5 ar
   9    4   25 1
  10    5    6 ar
  11    5   34 1
  12    6    7 1
  13    7    8 am
  14    7   12 1
  15    8    9 am
  16    8   15 2
  17    9   10 am
  18    9   14 1
  19   10   11 1
  20   10   13 2
  21   11   12 2
  22   11   23 1
  23   14   16 1
  24   14   35 1
  25   14   36 1
  26   16   17 ar
  27   16   21 ar
  28   17   18 ar
  29   17   37 1
  30   18   19 ar
  31   18   38 1
  32   19   20 ar
  33   19   22 1
  34   20   21 ar
  35   20   39 1
  36   21   40 1
  37   23   24 1
  38   24   41 1
  39   24   42 1
  40   24   43 1
  41   25   26 2
  42   25   29 1
  43   26   27 1
  44   27   28 1
  45   28   29 2
  46   28   30 1
  47   30   44 1
  48   30   45 1
  49   30   46 1

#	End of record

