#	Name: ASD01881418
#	Creating user name:	WinNT
#	Creation time:	15. 06. 2019 19:42

#	Modifying user name:	WinNT
#	Modification time:	15. 06. 2019 19:42

#	Program:	/corina/corina34_cracker 3.40 0067  02.08.2006

@<TRIPOS>MOLECULE
ASD01881418
  47   51    0    0    0
SMALL
NO_CHARGES


@<TRIPOS>ATOM
   1 N1            -0.0178     1.4628     0.0101 N.3     
   2 Cl2           -0.8971     8.3622    -0.8515 Cl      
   3 C3             1.6365    10.1843    -3.6706 C.ar    
   4 C4             1.0135     9.0030    -3.3234 C.ar    
   5 C5             2.8877    10.4849    -3.1627 C.ar    
   6 C6             3.5218     9.6043    -2.3045 C.ar    
   7 C7             2.9089     8.4200    -1.9501 C.ar    
   8 C8             1.6477     8.1115    -2.4588 C.ar    
   9 C9             0.9838     6.8415    -2.0817 C.2     
  10 C10           -0.1870     6.8572    -1.3457 C.2     
  11 C11            1.5387     5.5998    -2.4764 C.2     
  12 C12            0.9343     4.4472    -2.1328 C.2     
  13 N13           -0.2189     4.4523    -1.4014 N.pl3   
  14 C14           -0.7932     5.6351    -1.0032 C.2     
  15 C15           -1.0268     3.4672    -0.9222 C.2     
  16 N16           -2.0101     4.0419    -0.2785 N.2     
  17 N17           -1.8834     5.3217    -0.3201 N.2     
  18 C18           -0.8252     1.9844    -1.1007 C.3     
  19 C19            0.0021    -0.0041     0.0020 C.3     
  20 C20            1.3222     2.0427     0.0004 C.3     
  21 C21            2.0890     1.8194     1.2861 C.3     
  22 O22            2.3497     0.4240     1.4844 O.3     
  23 C23            1.3518    -0.2736     2.0907 C.ar    
  24 C24            0.1603    -0.4985     1.4276 C.ar    
  25 C25            1.5250    -0.7587     3.3800 C.ar    
  26 C26            0.4977    -1.4470     3.9963 C.ar    
  27 C27           -0.6991    -1.6521     3.3345 C.ar    
  28 C28           -0.8695    -1.1759     2.0461 C.ar    
  29 H29            1.1483    10.8735    -4.3437 H       
  30 H30            0.0365     8.7696    -3.7202 H       
  31 H31            3.3714    11.4107    -3.4372 H       
  32 H32            4.4989     9.8441    -1.9118 H       
  33 H33            3.4050     7.7332    -1.2803 H       
  34 H34            2.4500     5.5776    -3.0554 H       
  35 H35            1.3666     3.5063    -2.4399 H       
  36 H36           -0.3099     1.7986    -2.0431 H       
  37 H37           -1.7939     1.4848    -1.1117 H       
  38 H38           -0.9330    -0.3799    -0.4134 H       
  39 H39            0.8393    -0.3548    -0.6014 H       
  40 H40            1.8861     1.6036    -0.8226 H       
  41 H41            1.2365     3.1154    -0.1727 H       
  42 H42            3.0354     2.3582     1.2380 H       
  43 H43            1.5034     2.1979     2.1239 H       
  44 H44            2.4588    -0.5991     3.8986 H       
  45 H45            0.6300    -1.8266     4.9987 H       
  46 H46           -1.5017    -2.1842     3.8235 H       
  47 H47           -1.8035    -1.3349     1.5276 H       
@<TRIPOS>BOND
   1    1   19 1
   2    1   20 1
   3    1   18 1
   4    2   10 1
   5    3    4 ar
   6    3    5 ar
   7    3   29 1
   8    4    8 ar
   9    4   30 1
  10    5    6 ar
  11    5   31 1
  12    6    7 ar
  13    6   32 1
  14    7    8 ar
  15    7   33 1
  16    8    9 1
  17    9   10 2
  18    9   11 1
  19   10   14 1
  20   11   12 2
  21   11   34 1
  22   12   13 1
  23   12   35 1
  24   13   14 1
  25   13   15 1
  26   14   17 2
  27   15   16 2
  28   15   18 1
  29   16   17 1
  30   18   36 1
  31   18   37 1
  32   19   24 1
  33   19   38 1
  34   19   39 1
  35   20   21 1
  36   20   40 1
  37   20   41 1
  38   21   22 1
  39   21   42 1
  40   21   43 1
  41   22   23 1
  42   23   24 ar
  43   23   25 ar
  44   24   28 ar
  45   25   26 ar
  46   25   44 1
  47   26   27 ar
  48   26   45 1
  49   27   28 ar
  50   27   46 1
  51   28   47 1

#	End of record

