#	Name: ASD03091857
#	Creating user name:	WinNT
#	Creation time:	15. 06. 2019 20:31

#	Modifying user name:	WinNT
#	Modification time:	15. 06. 2019 20:31

#	Program:	/corina/corina34_cracker 3.40 0067  02.08.2006

@<TRIPOS>MOLECULE
ASD03091857
  44   48    0    0    0
SMALL
NO_CHARGES


@<TRIPOS>ATOM
   1 C1            -0.0224     1.2373    -1.1740 C.ar    
   2 C2            -0.0014    -0.1126    -0.7703 C.ar    
   3 C3             1.2214    -0.7556    -0.5803 C.ar    
   4 C4             2.3864    -0.0227    -0.8016 C.ar    
   5 C5             2.2849     1.3126    -1.2008 C.ar    
   6 N6             1.1164     1.8896    -1.3713 N.ar    
   7 N7            -1.3426     1.6044    -1.2756 N.pl3   
   8 C8            -1.4015    -0.5235    -0.6449 C.2     
   9 C9            -2.1502     0.5466    -0.9542 C.2     
  10 C10            3.7166    -0.6519    -0.6153 C.ar    
  11 C11            4.8711     0.0956    -0.8410 C.ar    
  12 C12            6.1054    -0.5022    -0.6640 C.ar    
  13 C13            6.1460    -1.8357    -0.2648 C.ar    
  14 C14            4.9558    -2.5184    -0.0584 C.ar    
  15 N15            3.7954    -1.9188    -0.2304 N.ar    
  16 O16            7.3381    -2.4616    -0.0798 O.3     
  17 C17           10.9430    -1.5092     0.3668 C.3     
  18 C18            9.6457    -2.2937     0.6202 C.3     
  19 C19            8.5162    -1.6615    -0.1981 C.3     
  20 C20            8.9290    -1.5775    -1.6704 C.3     
  21 C21           10.2749    -0.8415    -1.7685 C.3     
  22 C22           10.1785     0.4376    -0.9054 C.3     
  23 C23           10.6200    -0.0036     0.5056 C.3     
  24 N24           11.2868    -1.6782    -1.0702 N.3     
  25 H25            1.2645    -1.7894    -0.2708 H       
  26 H26            3.1859     1.8828    -1.3726 H       
  27 H27           -1.6565     2.4843    -1.5366 H       
  28 H28           -1.7623    -1.4985    -0.3526 H       
  29 H29           -3.2300     0.5687    -0.9537 H       
  30 H30            4.8026     1.1280    -1.1505 H       
  31 H31            7.0169     0.0522    -0.8319 H       
  32 H32            4.9810    -3.5528     0.2513 H       
  33 H33           11.7480    -1.8211     1.0323 H       
  34 H34            9.7810    -3.3313     0.3150 H       
  35 H35            9.3955    -2.2528     1.6803 H       
  36 H36            8.3129    -0.6590     0.1784 H       
  37 H37            9.0321    -2.5829    -2.0786 H       
  38 H38            8.1717    -1.0297    -2.2312 H       
  39 H39           10.5488    -0.6225    -2.8006 H       
  40 H40           10.8492     1.2060    -1.2897 H       
  41 H41            9.1524     0.8045    -0.8843 H       
  42 H42            9.8109     0.1464     1.2205 H       
  43 H43           11.5078     0.5478     0.8151 H       
  44 H44           12.2214    -1.3487    -1.2596 H       
@<TRIPOS>BOND
   1    1    2 ar
   2    1    6 ar
   3    1    7 1
   4    2    3 ar
   5    2    8 1
   6    3    4 ar
   7    3   25 1
   8    4    5 ar
   9    4   10 1
  10    5    6 ar
  11    5   26 1
  12    7    9 1
  13    7   27 1
  14    8    9 2
  15    8   28 1
  16    9   29 1
  17   10   11 ar
  18   10   15 ar
  19   11   12 ar
  20   11   30 1
  21   12   13 ar
  22   12   31 1
  23   13   14 ar
  24   13   16 1
  25   14   15 ar
  26   14   32 1
  27   16   19 1
  28   17   18 1
  29   17   23 1
  30   17   24 1
  31   17   33 1
  32   18   19 1
  33   18   34 1
  34   18   35 1
  35   19   20 1
  36   19   36 1
  37   20   21 1
  38   20   37 1
  39   20   38 1
  40   21   22 1
  41   21   24 1
  42   21   39 1
  43   22   23 1
  44   22   40 1
  45   22   41 1
  46   23   42 1
  47   23   43 1
  48   24   44 1

#	End of record

