#	Name: ASD02030050
#	Creating user name:	WinNT
#	Creation time:	15. 06. 2019 20:14

#	Modifying user name:	WinNT
#	Modification time:	15. 06. 2019 20:14

#	Program:	/corina/corina34_cracker 3.40 0067  02.08.2006

@<TRIPOS>MOLECULE
ASD02030050
  49   52    0    0    0
SMALL
NO_CHARGES


@<TRIPOS>ATOM
   1 C1            -3.4299    -4.6406    -1.7099 C.ar    
   2 C2            -2.5510    -4.2833    -0.6860 C.ar    
   3 C3            -2.6255    -3.0358    -0.1219 C.ar    
   4 C4            -3.5825    -2.1213    -0.5728 C.ar    
   5 C5            -4.4623    -2.4805    -1.5986 C.ar    
   6 C6            -4.3821    -3.7268    -2.1646 C.ar    
   7 C7            -3.6642    -0.7783     0.0338 C.2     
   8 C8            -4.9201    -0.0087    -0.0448 C.ar    
   9 O9            -2.6960    -0.3062     0.5984 O.2     
  10 C10           -6.1366    -0.6699    -0.2411 C.ar    
  11 C11           -7.3063     0.0522    -0.3139 C.ar    
  12 C12           -7.2794     1.4371    -0.1930 C.ar    
  13 C13           -6.0721     2.0986     0.0023 C.ar    
  14 C14           -4.8984     1.3837     0.0825 C.ar    
  15 O15           -8.4346     2.1452    -0.2662 O.3     
  16 C16           -8.3351     3.5645    -0.1340 C.3     
  17 C17           -9.7081     4.1765    -0.2405 C.ar    
  18 C18           -3.3478    -5.9889    -2.3189 C.ar    
  19 C19           -9.8640     5.5475    -0.1419 C.ar    
  20 C20          -11.1250     6.1087    -0.2403 C.ar    
  21 C21          -12.2277     5.2994    -0.4371 C.ar    
  22 C22          -12.0713     3.9292    -0.5356 C.ar    
  23 C23          -10.8113     3.3685    -0.4426 C.ar    
  24 Cl24          -8.4783     6.5634     0.1058 Cl      
  25 C25           -4.2250    -6.3482    -3.3422 C.ar    
  26 C26           -2.3896    -6.8997    -1.8740 C.ar    
  27 C27           -2.3159    -8.1533    -2.4427 C.ar    
  28 C28           -3.1942    -8.5097    -3.4578 C.ar    
  29 C29           -4.1461    -7.6034    -3.9066 C.ar    
  30 O30           -3.1188    -9.7456    -4.0163 O.3     
  31 H31           -1.8122    -4.9899    -0.3377 H       
  32 H32           -1.9457    -2.7597     0.6706 H       
  33 H33           -5.2021    -1.7753    -1.9475 H       
  34 H34           -5.0615    -4.0045    -2.9569 H       
  35 H35           -6.1583    -1.7455    -0.3359 H       
  36 H36           -8.2462    -0.4576    -0.4655 H       
  37 H37           -6.0556     3.1744     0.0957 H       
  38 H38           -3.9610     1.8983     0.2342 H       
  39 H39           -7.9023     3.8096     0.8360 H       
  40 H40           -7.6988     3.9595    -0.9259 H       
  41 H41          -11.2473     7.1789    -0.1631 H       
  42 H42          -13.2120     5.7373    -0.5135 H       
  43 H43          -12.9334     3.2971    -0.6890 H       
  44 H44          -10.6897     2.2981    -0.5199 H       
  45 H45           -4.9654    -5.6439    -3.6918 H       
  46 H46           -1.7058    -6.6229    -1.0852 H       
  47 H47           -1.5742    -8.8589    -2.0987 H       
  48 H48           -4.8276    -7.8836    -4.6962 H       
  49 H49           -3.6672   -10.4099    -3.5770 H       
@<TRIPOS>BOND
   1    1    2 ar
   2    1   18 1
   3    1    6 ar
   4    2    3 ar
   5    2   31 1
   6    3    4 ar
   7    3   32 1
   8    4    5 ar
   9    4    7 1
  10    5    6 ar
  11    5   33 1
  12    6   34 1
  13    7    8 1
  14    7    9 2
  15    8   10 ar
  16    8   14 ar
  17   10   11 ar
  18   10   35 1
  19   11   12 ar
  20   11   36 1
  21   12   13 ar
  22   12   15 1
  23   13   14 ar
  24   13   37 1
  25   14   38 1
  26   15   16 1
  27   16   17 1
  28   16   39 1
  29   16   40 1
  30   17   19 ar
  31   17   23 ar
  32   18   25 ar
  33   18   26 ar
  34   19   20 ar
  35   19   24 1
  36   20   21 ar
  37   20   41 1
  38   21   22 ar
  39   21   42 1
  40   22   23 ar
  41   22   43 1
  42   23   44 1
  43   25   29 ar
  44   25   45 1
  45   26   27 ar
  46   26   46 1
  47   27   28 ar
  48   27   47 1
  49   28   29 ar
  50   28   30 1
  51   29   48 1
  52   30   49 1

#	End of record

