#	Name: ASD01180334
#	Creating user name:	WinNT
#	Creation time:	15. 06. 2019 19:07

#	Modifying user name:	WinNT
#	Modification time:	15. 06. 2019 19:07

#	Program:	/corina/corina34_cracker 3.40 0067  02.08.2006

@<TRIPOS>MOLECULE
ASD01180334
  70   72    0    0    0
SMALL
NO_CHARGES


@<TRIPOS>ATOM
   1 C1             1.0974     2.0427     0.0154 C.2     
   2 C2             0.9690     0.5417     0.0519 C.3     
   3 C3             2.3591    -0.0914    -0.0356 C.3     
   4 O4             2.1888     2.5538    -0.0716 O.2     
   5 O5            -0.0010     2.8119     0.0741 O.3     
   6 C6             3.3368    -2.3231    -0.0647 C.2     
   7 C7             3.2111    -3.7927    -0.0290 C.ar    
   8 C8             4.3526    -4.6066    -0.0955 C.ar    
   9 C9             4.1889    -5.9648    -0.0592 C.ar    
  10 C10            2.9043    -6.4965     0.0419 C.ar    
  11 N11            1.8421    -5.7049     0.1027 N.ar    
  12 C12            1.9558    -4.3933     0.0771 C.ar    
  13 O13            4.4352    -1.8088    -0.1523 O.2     
  14 N14            2.2343    -1.5507    -0.0002 N.am    
  15 N15            2.7349    -7.8701     0.0789 N.pl3   
  16 C16            3.8875    -8.7555    -0.1054 C.3     
  17 C17            4.5745    -8.9856     1.2422 C.3     
  18 C18            5.8415    -9.8173     1.0332 C.3     
  19 C19            6.8526    -9.0101     0.2164 C.3     
  20 C20            6.4496   -10.1706     2.3920 C.3     
  21 C21            2.5682   -12.5005    -1.6909 C.ar    
  22 C22            3.7486   -11.9223    -2.1534 C.ar    
  23 C23            4.1699   -10.7133    -1.6378 C.ar    
  24 C24            3.4225   -10.0756    -0.6642 C.ar    
  25 C25            2.2502   -10.6453    -0.2011 C.ar    
  26 C26            1.8195   -11.8539    -0.7097 C.ar    
  27 C27            2.1069   -13.7972    -2.2458 C.ar    
  28 C28            0.9265   -14.3754    -1.7834 C.ar    
  29 C29            0.5023   -15.5816    -2.3030 C.ar    
  30 C30            1.2467   -16.2165    -3.2807 C.ar    
  31 C31            2.4195   -15.6473    -3.7431 C.ar    
  32 C32            2.8497   -14.4381    -3.2353 C.ar    
  33 C33            0.7786   -17.5336    -3.8439 C.3     
  34 C34            0.5537   -17.3930    -5.3507 C.3     
  35 C35            1.8394   -18.6052    -3.5844 C.3     
  36 H36            0.4906     0.2405     0.9838 H       
  37 H37            0.3641     0.2082    -0.7914 H       
  38 H38            2.8375     0.2098    -0.9676 H       
  39 H39            2.9640     0.2421     0.8076 H       
  40 H40            0.1316     3.7694     0.0475 H       
  41 H41            5.3377    -4.1709    -0.1740 H       
  42 H42            5.0471    -6.6187    -0.1088 H       
  43 H43            1.0704    -3.7776     0.1339 H       
  44 H44            1.3581    -1.9609     0.0697 H       
  45 H45            1.8531    -8.2463     0.2269 H       
  46 H46            4.5918    -8.2955    -0.7985 H       
  47 H47            4.8392    -8.0249     1.6838 H       
  48 H48            3.8965    -9.5178     1.9094 H       
  49 H49            5.5908   -10.7333     0.4982 H       
  50 H50            6.4105    -8.7374    -0.7419 H       
  51 H51            7.1219    -8.1061     0.7627 H       
  52 H52            7.7455    -9.6116     0.0467 H       
  53 H53            5.7293   -10.7457     2.9739 H       
  54 H54            7.3523   -10.7631     2.2432 H       
  55 H55            6.7003    -9.2547     2.9271 H       
  56 H56            4.3329   -12.4194    -2.9135 H       
  57 H57            5.0847   -10.2643    -1.9955 H       
  58 H58            1.6707   -10.1433     0.5594 H       
  59 H59            0.9036   -12.2975    -0.3480 H       
  60 H60            0.3449   -13.8808    -1.0196 H       
  61 H61           -0.4125   -16.0307    -1.9453 H       
  62 H62            2.9971   -16.1475    -4.5063 H       
  63 H63            3.7628   -13.9920    -3.6007 H       
  64 H64           -0.1556   -17.8231    -3.3625 H       
  65 H65           -0.2021   -16.6296    -5.5355 H       
  66 H66            1.4878   -17.1035    -5.8320 H       
  67 H67            0.2151   -18.3456    -5.7580 H       
  68 H68            1.9996   -18.7054    -2.5109 H       
  69 H69            1.5008   -19.5578    -3.9917 H       
  70 H70            2.7736   -18.3157    -4.0657 H       
@<TRIPOS>BOND
   1    1    2 1
   2    1    4 2
   3    1    5 1
   4    2    3 1
   5    2   36 1
   6    2   37 1
   7    3   14 1
   8    3   38 1
   9    3   39 1
  10    5   40 1
  11    6    7 1
  12    6   13 2
  13    6   14 am
  14    7    8 ar
  15    7   12 ar
  16    8    9 ar
  17    8   41 1
  18    9   10 ar
  19    9   42 1
  20   10   11 ar
  21   10   15 1
  22   11   12 ar
  23   12   43 1
  24   14   44 1
  25   15   16 1
  26   15   45 1
  27   16   17 1
  28   16   24 1
  29   16   46 1
  30   17   18 1
  31   17   47 1
  32   17   48 1
  33   18   19 1
  34   18   20 1
  35   18   49 1
  36   19   50 1
  37   19   51 1
  38   19   52 1
  39   20   53 1
  40   20   54 1
  41   20   55 1
  42   21   22 ar
  43   21   26 ar
  44   21   27 1
  45   22   23 ar
  46   22   56 1
  47   23   24 ar
  48   23   57 1
  49   24   25 ar
  50   25   26 ar
  51   25   58 1
  52   26   59 1
  53   27   28 ar
  54   27   32 ar
  55   28   29 ar
  56   28   60 1
  57   29   30 ar
  58   29   61 1
  59   30   31 ar
  60   30   33 1
  61   31   32 ar
  62   31   62 1
  63   32   63 1
  64   33   34 1
  65   33   35 1
  66   33   64 1
  67   34   65 1
  68   34   66 1
  69   34   67 1
  70   35   68 1
  71   35   69 1
  72   35   70 1

#	End of record

