#	Name: ASD01880091
#	Creating user name:	WinNT
#	Creation time:	15. 06. 2019 19:40

#	Modifying user name:	WinNT
#	Modification time:	15. 06. 2019 19:40

#	Program:	/corina/corina34_cracker 3.40 0067  02.08.2006

@<TRIPOS>MOLECULE
ASD01880091
  64   68    0    0    0
SMALL
NO_CHARGES


@<TRIPOS>ATOM
   1 C1            -0.0166     1.3758     0.0096 C.ar    
   2 C2             0.0021    -0.0041     0.0020 C.ar    
   3 C3             1.2045    -0.6844    -0.0127 C.ar    
   4 C4             2.4081     0.0194    -0.0205 C.ar    
   5 C5             2.3981     1.4102    -0.0134 C.ar    
   6 C6             1.1825     2.0927     0.0020 C.ar    
   7 C7             3.6980    -0.7144    -0.0358 C.ar    
   8 C8             4.9014    -0.0127    -0.0436 C.ar    
   9 C9             6.0983    -0.7003    -0.0573 C.ar    
  10 C10            6.1041    -2.0832    -0.0639 C.ar    
  11 C11            4.9120    -2.7851    -0.0562 C.ar    
  12 C12            3.7098    -2.1079    -0.0366 C.ar    
  13 C13            4.9263    -4.2920    -0.0639 C.3     
  14 O14            4.9435    -4.7751     1.2808 O.3     
  15 C15            4.9580    -6.1208     1.4517 C.ar    
  16 C16            4.9557    -6.9613     0.3448 C.ar    
  17 C17            4.9704    -8.3300     0.5146 C.ar    
  18 C18            4.9880    -8.8716     1.8019 C.ar    
  19 C19            4.9906    -8.0103     2.9128 C.ar    
  20 C20            4.9809    -6.6581     2.7343 C.ar    
  21 C21            4.9711    -9.4450    -0.5034 C.3     
  22 C22            4.9913   -10.7558     0.2950 C.3     
  23 C23            5.0015   -10.3398     1.7459 C.2     
  24 C24            3.7404   -11.5820    -0.0107 C.3     
  25 C25            3.6838   -11.9169    -1.5115 C.3     
  26 C26            3.7111   -13.4554    -1.6211 C.3     
  27 C27            3.1773   -13.9433    -0.2514 C.3     
  28 C28            3.8003   -12.9287     0.7393 C.3     
  29 O29            5.0175   -11.0880     2.7005 O.2     
  30 C30            4.9843    -5.7429     3.9315 C.3     
  31 C31            5.0091    -8.5832     4.3065 C.3     
  32 C32            1.1624     3.5700     0.0092 C.2     
  33 O33            2.2059     4.1916     0.0016 O.2     
  34 O34           -0.0132     4.2275     0.0240 O.3     
  35 H35           -0.9596     1.9023     0.0169 H       
  36 H36           -0.9271    -0.5545     0.0080 H       
  37 H37            1.2122    -1.7644    -0.0179 H       
  38 H38            3.3281     1.9592    -0.0190 H       
  39 H39            4.8979     1.0673    -0.0392 H       
  40 H40            7.0318    -0.1573    -0.0633 H       
  41 H41            7.0428    -2.6172    -0.0754 H       
  42 H42            2.7797    -2.6568    -0.0306 H       
  43 H43            4.0351    -4.6613    -0.5713 H       
  44 H44            5.8149    -4.6442    -0.5879 H       
  45 H45            4.9420    -6.5418    -0.6503 H       
  46 H46            4.0710    -9.3935    -1.1160 H       
  47 H47            5.8580    -9.3765    -1.1334 H       
  48 H48            5.8891   -11.3274     0.0598 H       
  49 H49            2.8476   -11.0298     0.2826 H       
  50 H50            2.7631   -11.5279    -1.9464 H       
  51 H51            4.5474   -11.4908    -2.0220 H       
  52 H52            3.0587   -13.7922    -2.4267 H       
  53 H53            4.7299   -13.8084    -1.7812 H       
  54 H54            2.0888   -13.8941    -0.2213 H       
  55 H55            3.5254   -14.9542    -0.0390 H       
  56 H56            4.8334   -13.1967     0.9605 H       
  57 H57            3.2129   -12.8811     1.6563 H       
  58 H58            6.0128    -5.5158     4.2124 H       
  59 H59            4.4629    -4.8184     3.6836 H       
  60 H60            4.4798    -6.2324     4.7645 H       
  61 H61            6.0412    -8.7119     4.6328 H       
  62 H62            4.4954    -7.9030     4.9858 H       
  63 H63            4.5042    -9.5492     4.3090 H       
  64 H64            0.0243     5.1938     0.0282 H       
@<TRIPOS>BOND
   1    1    2 ar
   2    1    6 ar
   3    1   35 1
   4    2    3 ar
   5    2   36 1
   6    3    4 ar
   7    3   37 1
   8    4    5 ar
   9    4    7 1
  10    5    6 ar
  11    5   38 1
  12    6   32 1
  13    7    8 ar
  14    7   12 ar
  15    8    9 ar
  16    8   39 1
  17    9   10 ar
  18    9   40 1
  19   10   11 ar
  20   10   41 1
  21   11   12 ar
  22   11   13 1
  23   12   42 1
  24   13   14 1
  25   13   43 1
  26   13   44 1
  27   14   15 1
  28   15   16 ar
  29   15   20 ar
  30   16   17 ar
  31   16   45 1
  32   17   18 ar
  33   17   21 1
  34   18   19 ar
  35   18   23 1
  36   19   20 ar
  37   19   31 1
  38   20   30 1
  39   21   22 1
  40   21   46 1
  41   21   47 1
  42   22   23 1
  43   22   24 1
  44   22   48 1
  45   23   29 2
  46   24   25 1
  47   24   28 1
  48   24   49 1
  49   25   26 1
  50   25   50 1
  51   25   51 1
  52   26   27 1
  53   26   52 1
  54   26   53 1
  55   27   28 1
  56   27   54 1
  57   27   55 1
  58   28   56 1
  59   28   57 1
  60   30   58 1
  61   30   59 1
  62   30   60 1
  63   31   61 1
  64   31   62 1
  65   31   63 1
  66   32   33 2
  67   32   34 1
  68   34   64 1

#	End of record

