#	Name: ASD01150324
#	Creating user name:	WinNT
#	Creation time:	15. 06. 2019 19:04

#	Modifying user name:	WinNT
#	Modification time:	15. 06. 2019 19:04

#	Program:	/corina/corina34_cracker 3.40 0067  02.08.2006

@<TRIPOS>MOLECULE
ASD01150324
  44   45    0    0    0
SMALL
NO_CHARGES


@<TRIPOS>ATOM
   1 S1            -0.0217     1.7503     0.0117 S.3     
   2 C2             0.0021    -0.0041     0.0020 C.2     
   3 C3             1.2467    -0.4585    -0.0123 C.2     
   4 C4             2.2376     0.5958    -0.0161 C.2     
   5 C5             1.6798     1.8491    -0.0040 C.2     
   6 C6            -1.2269    -0.8762     0.0095 C.3     
   7 C7             1.5948    -1.9247    -0.0230 C.3     
   8 C8             1.6993    -2.4135    -1.4691 C.3     
   9 C9             3.6813     0.3513    -0.0308 C.2     
  10 N10            2.4007     3.0329    -0.0050 N.am    
  11 C11            1.7544     4.2155     0.0076 C.2     
  12 O12            0.5420     4.2439     0.0197 O.2     
  13 O13            4.2712     0.2551    -1.0902 O.2     
  14 O14            4.3571     0.2327     1.1306 O.3     
  15 C15            5.7859    -0.0091     1.0401 C.3     
  16 C16            2.5383     5.5026     0.0065 C.3     
  17 C17            1.5716     6.6885     0.0223 C.3     
  18 C18            2.3674     7.9952     0.0213 C.3     
  19 C19            3.2610     8.0491     1.2620 C.3     
  20 C20            4.2277     6.8633     1.2463 C.3     
  21 C21            3.4319     5.5566     1.2473 C.3     
  22 H22           -2.1179    -0.2484     0.0213 H       
  23 H23           -1.2344    -1.5011    -0.8836 H       
  24 H24           -1.2172    -1.5100     0.8963 H       
  25 H25            2.5494    -2.0751     0.4812 H       
  26 H26            0.8177    -2.4864     0.4951 H       
  27 H27            0.7447    -2.2630    -1.9733 H       
  28 H28            2.4765    -1.8517    -1.9873 H       
  29 H29            1.9511    -3.4740    -1.4768 H       
  30 H30            3.3704     3.0102    -0.0147 H       
  31 H31            6.2060    -0.0838     2.0431 H       
  32 H32            5.9635    -0.9399     0.5015 H       
  33 H33            6.2609     0.8150     0.5077 H       
  34 H34            3.1573     5.5503    -0.8894 H       
  35 H35            0.9350     6.6501    -0.8616 H       
  36 H36            0.9526     6.6408     0.9182 H       
  37 H37            2.9864     8.0429    -0.8746 H       
  38 H38            1.6788     8.8400     0.0325 H       
  39 H39            3.8280     8.9801     1.2613 H       
  40 H40            2.6420     8.0014     2.1579 H       
  41 H41            4.8467     6.9110     0.3504 H       
  42 H42            4.8643     6.9017     2.1302 H       
  43 H43            2.8129     5.5088     2.1432 H       
  44 H44            4.1205     4.7117     1.2361 H       
@<TRIPOS>BOND
   1    1    2 1
   2    1    5 1
   3    2    3 2
   4    2    6 1
   5    3    4 1
   6    3    7 1
   7    4    5 2
   8    4    9 1
   9    5   10 1
  10    6   22 1
  11    6   23 1
  12    6   24 1
  13    7    8 1
  14    7   25 1
  15    7   26 1
  16    8   27 1
  17    8   28 1
  18    8   29 1
  19    9   13 2
  20    9   14 1
  21   10   11 am
  22   10   30 1
  23   11   12 2
  24   11   16 1
  25   14   15 1
  26   15   31 1
  27   15   32 1
  28   15   33 1
  29   16   17 1
  30   16   21 1
  31   16   34 1
  32   17   18 1
  33   17   35 1
  34   17   36 1
  35   18   19 1
  36   18   37 1
  37   18   38 1
  38   19   20 1
  39   19   39 1
  40   19   40 1
  41   20   21 1
  42   20   41 1
  43   20   42 1
  44   21   43 1
  45   21   44 1

#	End of record

