#	Name: ASD08170405
#	Creating user name:	WinNT
#	Creation time:	15. 06. 2019 21:17

#	Modifying user name:	WinNT
#	Modification time:	15. 06. 2019 21:17

#	Program:	/corina/corina34_cracker 3.40 0067  02.08.2006

@<TRIPOS>MOLECULE
ASD08170405
  63   66    0    0    0
SMALL
NO_CHARGES


@<TRIPOS>ATOM
   1 N1             0.6899     1.2045    -0.7869 N.2     
   2 C2             0.7726    -0.0895    -0.7095 C.2     
   3 S3             2.4270    -0.5326    -0.6734 S.3     
   4 C4             2.8655     1.1732    -0.7721 C.2     
   5 N5             1.7685     1.8598    -0.8194 N.2     
   6 C6             8.4990     3.7194     3.9713 C.2     
   7 S7             8.1821     5.1867     4.8976 S.3     
   8 C8             8.8395     4.4290     6.2862 C.2     
   9 N9             9.2150     3.2273     5.9662 N.2     
  10 N10            9.0363     2.8557     4.7730 N.2     
  11 C11           10.0708     4.1000    10.8617 C.ar    
  12 C12           11.0611     3.1473    10.6612 C.ar    
  13 C13            9.5521     4.3008    12.1341 C.ar    
  14 C14           10.0222     3.5529    13.1959 C.ar    
  15 C15           11.0087     2.6054    12.9930 C.ar    
  16 C16           11.5269     2.4027    11.7271 C.ar    
  17 C17           -3.9130    -0.8626    -0.7882 C.ar    
  18 C18           -4.8703    -1.6178    -1.4529 C.ar    
  19 C19           -6.1586    -1.1372    -1.5832 C.ar    
  20 C20           -6.4956     0.0945    -1.0525 C.ar    
  21 C21           -5.5445     0.8490    -0.3905 C.ar    
  22 C22           -4.2560     0.3715    -0.2518 C.ar    
  23 N23            8.9529     5.0049     7.5469 N.am    
  24 C24            9.4909     4.3018     8.5631 C.2     
  25 O25            9.8771     3.1640     8.3777 O.2     
  26 N26            9.6007     4.8600     9.7849 N.am    
  27 C27            4.2651     1.7312    -0.7965 C.3     
  28 C28            4.7297     2.0057     0.6352 C.3     
  29 S29            6.4145     2.6774     0.6058 S.3     
  30 C30            6.7824     2.9335     2.3636 C.3     
  31 C31            8.1933     3.5066     2.5111 C.3     
  32 N32           -0.3034    -0.9693    -0.6632 N.am    
  33 C33           -1.5642    -0.4943    -0.6990 C.2     
  34 O34           -1.7608     0.7033    -0.7717 O.2     
  35 N35           -2.6070    -1.3469    -0.6541 N.am    
  36 C36            9.4599     3.7702    14.5770 C.3     
  37 C37           -7.1979    -1.9557    -2.3048 C.3     
  38 H38           11.4662     2.9885     9.6727 H       
  39 H39            8.7822     5.0412    12.2934 H       
  40 H40           11.3752     2.0224    13.8249 H       
  41 H41           12.2973     1.6618    11.5718 H       
  42 H42           -4.6076    -2.5796    -1.8679 H       
  43 H43           -7.5036     0.4681    -1.1557 H       
  44 H44           -5.8107     1.8108     0.0226 H       
  45 H45           -3.5137     0.9611     0.2657 H       
  46 H46            8.6448     5.9127     7.6949 H       
  47 H47            9.3540     5.7886     9.9179 H       
  48 H48            4.9356     1.0102    -1.2641 H       
  49 H49            4.2760     2.6602    -1.3664 H       
  50 H50            4.0592     2.7267     1.1028 H       
  51 H51            4.7189     1.0766     1.2051 H       
  52 H52            6.0606     3.6313     2.7880 H       
  53 H53            6.7202     1.9812     2.8903 H       
  54 H54            8.2556     4.4589     1.9844 H       
  55 H55            8.9152     2.8088     2.0867 H       
  56 H56           -0.1465    -1.9247    -0.6052 H       
  57 H57           -2.4522    -2.2963    -0.5289 H       
  58 H58            8.6042     3.1123    14.7286 H       
  59 H59           10.2256     3.5475    15.3202 H       
  60 H60            9.1433     4.8080    14.6813 H       
  61 H61           -7.7069    -2.6057    -1.5931 H       
  62 H62           -7.9236    -1.2906    -2.7728 H       
  63 H63           -6.7150    -2.5629    -3.0704 H       
@<TRIPOS>BOND
   1    1    2 2
   2    1    5 1
   3    2    3 1
   4    2   32 1
   5    3    4 1
   6    4    5 2
   7    4   27 1
   8    6    7 1
   9    6   31 1
  10    6   10 2
  11    7    8 1
  12    8    9 2
  13    8   23 1
  14    9   10 1
  15   11   12 ar
  16   11   13 ar
  17   11   26 1
  18   12   16 ar
  19   12   38 1
  20   13   14 ar
  21   13   39 1
  22   14   15 ar
  23   14   36 1
  24   15   16 ar
  25   15   40 1
  26   16   41 1
  27   17   18 ar
  28   17   35 1
  29   17   22 ar
  30   18   19 ar
  31   18   42 1
  32   19   20 ar
  33   19   37 1
  34   20   21 ar
  35   20   43 1
  36   21   22 ar
  37   21   44 1
  38   22   45 1
  39   23   24 am
  40   23   46 1
  41   24   25 2
  42   24   26 am
  43   26   47 1
  44   27   28 1
  45   27   48 1
  46   27   49 1
  47   28   29 1
  48   28   50 1
  49   28   51 1
  50   29   30 1
  51   30   31 1
  52   30   52 1
  53   30   53 1
  54   31   54 1
  55   31   55 1
  56   32   33 am
  57   32   56 1
  58   33   34 2
  59   33   35 am
  60   35   57 1
  61   36   58 1
  62   36   59 1
  63   36   60 1
  64   37   61 1
  65   37   62 1
  66   37   63 1

#	End of record

