#	Name: ASD00731038
#	Creating user name:	WinNT
#	Creation time:	15. 06. 2019 18:37

#	Modifying user name:	WinNT
#	Modification time:	15. 06. 2019 18:37

#	Program:	/corina/corina34_cracker 3.40 0067  02.08.2006

@<TRIPOS>MOLECULE
ASD00731038
 254  256    0    0    0
SMALL
NO_CHARGES


@<TRIPOS>ATOM
   1 C1            -1.8765    -2.2957    -3.4470 C.2     
   2 O2            -2.3430    -2.7447    -4.4724 O.2     
   3 N3             0.2599    -3.0336    -4.3306 N.am    
   4 C4            -0.3926    -2.3752    -3.1961 C.3     
   5 C5            -4.7037    -0.4849    -2.0011 C.2     
   6 O6            -3.9822     0.2003    -1.3076 O.2     
   7 N7            -2.6843    -1.7205    -2.5343 N.am    
   8 C8            -4.1261    -1.6378    -2.7809 C.3     
   9 C9            -4.7950    -2.9401    -2.3366 C.3     
  10 O10           -4.6613    -3.0856    -0.9213 O.3     
  11 C11           -8.0466     0.6534    -1.0561 C.2     
  12 O12           -8.5686    -0.3626    -1.4637 O.2     
  13 N13           -6.0222    -0.2151    -2.0743 N.am    
  14 C14           -6.5838     0.9057    -1.3163 C.3     
  15 C15           -6.4243     2.1968    -2.1215 C.3     
  16 C16           -4.9523     2.3879    -2.4925 C.3     
  17 O17           -7.2091     2.1152    -3.3129 O.3     
  18 C18          -10.9394     1.9929    -1.3769 C.2     
  19 O19          -10.3092     2.5455    -2.2535 O.2     
  20 N20           -8.7747     1.5568    -0.3704 N.am    
  21 C21          -10.2184     1.3655    -0.2117 C.3     
  22 C22          -10.6804     2.0254     1.0891 C.3     
  23 C23          -10.0754     1.2995     2.2630 C.2     
  24 O24           -9.2822     0.4071     2.0779 O.2     
  25 O25          -10.4176     1.6445     3.5143 O.3     
  26 C26          -14.3893     2.9096    -2.1648 C.2     
  27 O27          -14.7674     2.6790    -1.0357 O.2     
  28 N28          -12.2844     1.9401    -1.4447 N.am    
  29 C29          -12.9852     2.5500    -2.5774 C.3     
  30 C30          -13.0339     1.5579    -3.7412 C.3     
  31 C31          -11.6134     1.2887    -4.2416 C.3     
  32 C32          -11.6621     0.2966    -5.4053 C.3     
  33 N33          -10.3019     0.0388    -5.8845 N.pl3   
  34 C34          -10.0947    -0.8270    -6.9322 C.2     
  35 N35           -8.8845    -1.0564    -7.3585 N.2     
  36 N36          -11.1639    -1.4508    -7.5302 N.pl3   
  37 C37          -17.5035     3.8801    -3.7872 C.2     
  38 O38          -17.0730     3.8623    -4.9209 O.2     
  39 N39          -15.2249     3.4873    -3.0504 N.am    
  40 C40          -16.5514     3.9367    -2.6205 C.3     
  41 C41          -16.4606     5.3746    -2.1055 C.3     
  42 C42          -17.8086     5.7902    -1.5131 C.3     
  43 C43          -18.0929     4.9595    -0.2600 C.3     
  44 C44          -17.7672     7.2741    -1.1427 C.3     
  45 C45          -21.0957     4.2690    -4.3423 C.2     
  46 O46          -21.2647     4.7814    -3.2561 O.2     
  47 N47          -18.8334     3.8494    -3.5708 N.am    
  48 C48          -19.7550     3.6790    -4.6968 C.3     
  49 C49          -19.9182     2.1885    -5.0012 C.3     
  50 C50          -18.5827     1.6168    -5.4812 C.3     
  51 C51          -18.7458     0.1263    -5.7857 C.3     
  52 N52          -17.4670    -0.4211    -6.2453 N.pl3   
  53 C53          -17.3691    -1.7509    -6.5802 C.2     
  54 N54          -18.4140    -2.5246    -6.4887 N.2     
  55 N55          -16.1690    -2.2646    -7.0115 N.pl3   
  56 C56          -24.4854     4.1307    -5.7037 C.2     
  57 O57          -24.1921     3.2598    -6.4951 O.2     
  58 N58          -22.1069     4.2273    -5.2324 N.am    
  59 C59          -23.4101     4.8009    -4.8878 C.3     
  60 C60          -23.4026     6.3011    -5.1880 C.3     
  61 C61          -22.3974     6.9998    -4.2702 C.3     
  62 C62          -22.3898     8.5000    -4.5704 C.3     
  63 C63          -21.3847     9.1987    -3.6526 C.3     
  64 N64          -21.3774    10.6392    -3.9408 N.3     
  65 C65          -27.9987     4.7753    -6.4813 C.2     
  66 O66          -27.9695     5.8724    -5.9651 O.2     
  67 N67          -25.7732     4.4993    -5.5540 N.am    
  68 C68          -26.8185     3.8478    -6.3472 C.3     
  69 C69          -27.2592     2.5592    -5.6500 C.3     
  70 C70          -26.1110     1.5834    -5.6254 C.2     
  71 C71          -25.8772     0.6030    -6.5120 C.2     
  72 N72          -24.7422    -0.0784    -6.1657 N.pl3   
  73 C73          -24.2043     0.4606    -5.0186 C.ar    
  74 C74          -23.0826     0.1590    -4.2535 C.ar    
  75 C75          -22.8016     0.9029    -3.1282 C.ar    
  76 C76          -23.6272     1.9521    -2.7489 C.ar    
  77 C77          -24.7346     2.2654    -3.4858 C.ar    
  78 C78          -25.0348     1.5289    -4.6330 C.ar    
  79 C79          -31.4828     4.4791    -7.5473 C.2     
  80 O80          -31.4206     3.2693    -7.6053 O.2     
  81 N81          -29.0867     4.3855    -7.1748 N.am    
  82 C82          -30.2340     5.2871    -7.3052 C.3     
  83 C83          -30.0049     6.2371    -8.4824 C.3     
  84 C84          -34.8981     5.1640    -8.6563 C.2     
  85 O85          -34.6336     6.3118    -8.9452 O.2     
  86 N86          -32.6688     5.1009    -7.6995 N.am    
  87 C87          -33.8828     4.3155    -7.9349 C.3     
  88 C88          -34.4613     3.8567    -6.5949 C.3     
  89 C89          -33.4966     2.9096    -5.9291 C.ar    
  90 C90          -32.5233     3.3993    -5.0783 C.ar    
  91 C91          -31.6384     2.5305    -4.4676 C.ar    
  92 C92          -31.7269     1.1720    -4.7074 C.ar    
  93 C93          -32.7007     0.6822    -5.5575 C.ar    
  94 C94          -33.5884     1.5506    -6.1648 C.ar    
  95 C95          -37.8672     6.2830    -8.6791 C.2     
  96 O96          -37.6237     6.1822    -7.4999 O.2     
  97 N97          -36.1000     4.6473    -8.9803 N.am    
  98 C98          -37.0870     5.4722    -9.6815 C.3     
  99 C99          -38.0438     4.5691   -10.4625 C.3     
 100 C100         -38.9959     5.4321   -11.2930 C.3     
 101 C101         -39.8692     4.5307   -12.1680 C.3     
 102 C102         -38.8522     3.7151    -9.4837 C.3     
 103 O103         -38.8325     7.1172    -9.0962 O.3     
 104 C104           1.5952    -3.2163    -4.3267 C.2     
 105 O105           2.2566    -2.8357    -3.3841 O.2     
 106 C106          17.5817    -9.2720   -12.0044 C.3     
 107 C107          16.9003    -8.5844   -10.8196 C.3     
 108 C108          15.3938    -8.5037   -11.0743 C.3     
 109 C109          14.7124    -7.8161    -9.8895 C.3     
 110 C110          13.2059    -7.7353   -10.1442 C.3     
 111 C111          12.5245    -7.0477    -8.9594 C.3     
 112 C112          11.0180    -6.9670    -9.2141 C.3     
 113 C113          10.3366    -6.2794    -8.0293 C.3     
 114 C114           8.8301    -6.1986    -8.2840 C.3     
 115 C115           8.1487    -5.5110    -7.0992 C.3     
 116 C116           6.6422    -5.4303    -7.3539 C.3     
 117 C117           5.9608    -4.7427    -6.1691 C.3     
 118 C118           4.4543    -4.6619    -6.4238 C.3     
 119 C119           3.7728    -3.9743    -5.2390 C.3     
 120 C120           2.2664    -3.8936    -5.4937 C.3     
 121 H121          -0.2692    -3.3380    -5.0844 H       
 122 H122           0.0105    -1.3693    -3.0789 H       
 123 H123          -0.2079    -2.9488    -2.2878 H       
 124 H124          -2.3112    -1.3613    -1.7141 H       
 125 H125          -4.3043    -1.4824    -3.8449 H       
 126 H126          -5.8522    -2.9141    -2.6009 H       
 127 H127          -4.3164    -3.7829    -2.8353 H       
 128 H128          -5.0634    -3.8913    -0.5690 H       
 129 H129          -6.5993    -0.7631    -2.6289 H       
 130 H130          -6.0572     1.0022    -0.3668 H       
 131 H131          -6.7606     3.0428    -1.5220 H       
 132 H132          -4.6159     1.5420    -3.0920 H       
 133 H133          -4.8387     3.3078    -3.0662 H       
 134 H134          -4.3537     2.4502    -1.5838 H       
 135 H135          -6.9645     1.3834    -3.8957 H       
 136 H136          -8.3428     2.3336     0.0180 H       
 137 H137         -10.4421     0.2992    -0.1776 H       
 138 H138         -10.3600     3.0672     1.1017 H       
 139 H139         -11.7675     1.9787     1.1541 H       
 140 H140         -10.0033     1.1503     4.2348 H       
 141 H141         -12.7884     1.4981    -0.7436 H       
 142 H142         -12.4564     3.4506    -2.8896 H       
 143 H143         -13.4834     0.6240    -3.4038 H       
 144 H144         -13.6311     1.9769    -4.5510 H       
 145 H145         -11.1638     2.2226    -4.5789 H       
 146 H146         -11.0161     0.8697    -3.4317 H       
 147 H147         -12.1116    -0.6374    -5.0680 H       
 148 H148         -12.2593     0.7156    -6.2152 H       
 149 H149          -9.5474     0.4789    -5.4625 H       
 150 H150          -8.7383    -1.6672    -8.0977 H       
 151 H151         -12.0645    -1.2801    -7.2129 H       
 152 H152         -11.0177    -2.0616    -8.2694 H       
 153 H153         -14.9481     3.6056    -3.9725 H       
 154 H154         -16.9142     3.2876    -1.8235 H       
 155 H155         -15.6909     5.4371    -1.3363 H       
 156 H156         -16.2053     6.0403    -2.9299 H       
 157 H157         -18.5960     5.6209    -2.2476 H       
 158 H158         -19.0060     5.3187     0.2146 H       
 159 H159         -18.2155     3.9128    -0.5381 H       
 160 H160         -17.2597     5.0553     0.4361 H       
 161 H161         -17.5647     7.8659    -2.0354 H       
 162 H162         -18.7276     7.5702    -0.7207 H       
 163 H163         -16.9799     7.4434    -0.4082 H       
 164 H164         -19.1804     3.9401    -2.6695 H       
 165 H165         -19.3548     4.1873    -5.5740 H       
 166 H166         -20.2338     1.6657    -4.0983 H       
 167 H167         -20.6704     2.0568    -5.7790 H       
 168 H168         -18.2671     2.1397    -6.3841 H       
 169 H169         -17.8305     1.7486    -4.7034 H       
 170 H170         -19.0614    -0.3965    -4.8828 H       
 171 H171         -19.4980    -0.0054    -6.5635 H       
 172 H172         -16.6894     0.1548    -6.3133 H       
 173 H173         -18.3450    -3.4629    -6.7250 H       
 174 H174         -15.3914    -1.6888    -7.0795 H       
 175 H175         -16.0999    -3.2028    -7.2477 H       
 176 H176         -21.9717     3.8175    -6.1011 H       
 177 H177         -23.6075     4.6435    -3.8275 H       
 178 H178         -23.1180     6.4621    -6.2279 H       
 179 H179         -24.3977     6.7111    -5.0160 H       
 180 H180         -22.6819     6.8388    -3.2304 H       
 181 H181         -21.4022     6.5898    -4.4423 H       
 182 H182         -22.1053     8.6611    -5.6102 H       
 183 H183         -23.3850     8.9100    -4.3984 H       
 184 H184         -21.6692     9.0377    -2.6128 H       
 185 H185         -20.3895     8.7887    -3.8246 H       
 186 H186         -20.7209    11.1234    -3.3471 H       
 187 H187         -21.1795    10.8120    -4.9150 H       
 188 H188         -26.0078     5.1958    -4.9210 H       
 189 H189         -26.4287     3.6104    -7.3370 H       
 190 H190         -27.5658     2.7852    -4.6287 H       
 191 H191         -28.0969     2.1208    -6.1923 H       
 192 H192         -26.4938     0.3842    -7.3713 H       
 193 H193         -24.3718    -0.8293    -6.6555 H       
 194 H194         -22.4343    -0.6558    -4.5402 H       
 195 H195         -21.9304     0.6670    -2.5353 H       
 196 H196         -23.3927     2.5253    -1.8641 H       
 197 H197         -25.3727     3.0830    -3.1843 H       
 198 H198         -29.1100     3.5080    -7.5876 H       
 199 H199         -30.3476     5.8655    -6.3883 H       
 200 H200         -30.8585     6.9079    -8.5794 H       
 201 H201         -29.1016     6.8215    -8.3072 H       
 202 H202         -29.8913     5.6587    -9.3993 H       
 203 H203         -32.7186     6.0686    -7.6531 H       
 204 H204         -33.6396     3.4442    -8.5431 H       
 205 H205         -34.6217     4.7228    -5.9528 H       
 206 H206         -35.4109     3.3488    -6.7638 H       
 207 H207         -32.4542     4.4607    -4.8909 H       
 208 H208         -30.8775     2.9132    -3.8034 H       
 209 H209         -31.0350     0.4933    -4.2309 H       
 210 H210         -32.7696    -0.3791    -5.7451 H       
 211 H211         -34.3516     1.1676    -6.8261 H       
 212 H212         -36.3115     3.7293    -8.7491 H       
 213 H213         -36.5753     6.1427   -10.3719 H       
 214 H214         -37.4713     3.9194   -11.1245 H       
 215 H215         -39.6303     6.0171   -10.6272 H       
 216 H216         -38.4175     6.1041   -11.9271 H       
 217 H217         -40.4475     3.8587   -11.5339 H       
 218 H218         -40.5474     5.1455   -12.7597 H       
 219 H219         -39.2347     3.9457   -12.8339 H       
 220 H220         -39.4247     4.3648    -8.8217 H       
 221 H221         -39.5339     3.0718   -10.0400 H       
 222 H222         -38.1739     3.1003    -8.8920 H       
 223 H223         -39.3055     7.6162    -8.4162 H       
 224 H224          17.1786   -10.2780   -12.1216 H       
 225 H225          17.3970    -8.6985   -12.9127 H       
 226 H226          18.6550    -9.3296   -11.8229 H       
 227 H227          17.0850    -9.1580    -9.9113 H       
 228 H228          17.3034    -7.5785   -10.7023 H       
 229 H229          15.2091    -7.9301   -11.9826 H       
 230 H230          14.9907    -9.5096   -11.1915 H       
 231 H231          14.8971    -8.3897    -8.9812 H       
 232 H232          15.1155    -6.8102    -9.7722 H       
 233 H233          13.0212    -7.1618   -11.0525 H       
 234 H234          12.8028    -8.7413   -10.2614 H       
 235 H235          12.7092    -7.6213    -8.0511 H       
 236 H236          12.9276    -6.0418    -8.8421 H       
 237 H237          10.8333    -6.3934   -10.1224 H       
 238 H238          10.6149    -7.9729    -9.3313 H       
 239 H239          10.5213    -6.8530    -7.1210 H       
 240 H240          10.7397    -5.2735    -7.9121 H       
 241 H241           8.6454    -5.6251    -9.1923 H       
 242 H242           8.4270    -7.2046    -8.4012 H       
 243 H243           8.3334    -6.0846    -6.1909 H       
 244 H244           8.5518    -4.5051    -6.9820 H       
 245 H245           6.4575    -4.8567    -8.2622 H       
 246 H246           6.2391    -6.4362    -7.4711 H       
 247 H247           6.1454    -5.3162    -5.2608 H       
 248 H248           6.3638    -3.7368    -6.0519 H       
 249 H249           4.2696    -4.0884    -7.3321 H       
 250 H250           4.0512    -5.6678    -6.5411 H       
 251 H251           3.9575    -4.5479    -4.3307 H       
 252 H252           4.1759    -2.9684    -5.1218 H       
 253 H253           1.8633    -4.8995    -5.6110 H       
 254 H254           2.0817    -3.3200    -6.4020 H       
@<TRIPOS>BOND
   1    1    2 2
   2    1    4 1
   3    1    7 am
   4    3    4 1
   5    3  104 am
   6    3  121 1
   7    4  122 1
   8    4  123 1
   9    5    6 2
  10    5    8 1
  11    5   13 am
  12    7    8 1
  13    7  124 1
  14    8    9 1
  15    8  125 1
  16    9   10 1
  17    9  126 1
  18    9  127 1
  19   10  128 1
  20   11   12 2
  21   11   14 1
  22   11   20 am
  23   13   14 1
  24   13  129 1
  25   14   15 1
  26   14  130 1
  27   15   16 1
  28   15   17 1
  29   15  131 1
  30   16  132 1
  31   16  133 1
  32   16  134 1
  33   17  135 1
  34   18   19 2
  35   18   21 1
  36   18   28 am
  37   20   21 1
  38   20  136 1
  39   21   22 1
  40   21  137 1
  41   22   23 1
  42   22  138 1
  43   22  139 1
  44   23   24 2
  45   23   25 1
  46   25  140 1
  47   26   27 2
  48   26   29 1
  49   26   39 am
  50   28   29 1
  51   28  141 1
  52   29   30 1
  53   29  142 1
  54   30   31 1
  55   30  143 1
  56   30  144 1
  57   31   32 1
  58   31  145 1
  59   31  146 1
  60   32   33 1
  61   32  147 1
  62   32  148 1
  63   33   34 1
  64   33  149 1
  65   34   35 2
  66   34   36 1
  67   35  150 1
  68   36  151 1
  69   36  152 1
  70   37   38 2
  71   37   40 1
  72   37   47 am
  73   39   40 1
  74   39  153 1
  75   40   41 1
  76   40  154 1
  77   41   42 1
  78   41  155 1
  79   41  156 1
  80   42   43 1
  81   42   44 1
  82   42  157 1
  83   43  158 1
  84   43  159 1
  85   43  160 1
  86   44  161 1
  87   44  162 1
  88   44  163 1
  89   45   46 2
  90   45   48 1
  91   45   58 am
  92   47   48 1
  93   47  164 1
  94   48   49 1
  95   48  165 1
  96   49   50 1
  97   49  166 1
  98   49  167 1
  99   50   51 1
 100   50  168 1
 101   50  169 1
 102   51   52 1
 103   51  170 1
 104   51  171 1
 105   52   53 1
 106   52  172 1
 107   53   54 2
 108   53   55 1
 109   54  173 1
 110   55  174 1
 111   55  175 1
 112   56   57 2
 113   56   59 1
 114   56   67 am
 115   58   59 1
 116   58  176 1
 117   59   60 1
 118   59  177 1
 119   60   61 1
 120   60  178 1
 121   60  179 1
 122   61   62 1
 123   61  180 1
 124   61  181 1
 125   62   63 1
 126   62  182 1
 127   62  183 1
 128   63   64 1
 129   63  184 1
 130   63  185 1
 131   64  186 1
 132   64  187 1
 133   65   66 2
 134   65   68 1
 135   65   81 am
 136   67   68 1
 137   67  188 1
 138   68   69 1
 139   68  189 1
 140   69   70 1
 141   69  190 1
 142   69  191 1
 143   70   71 2
 144   70   78 1
 145   71   72 1
 146   71  192 1
 147   72   73 1
 148   72  193 1
 149   73   74 ar
 150   73   78 ar
 151   74   75 ar
 152   74  194 1
 153   75   76 ar
 154   75  195 1
 155   76   77 ar
 156   76  196 1
 157   77   78 ar
 158   77  197 1
 159   79   80 2
 160   79   82 1
 161   79   86 am
 162   81   82 1
 163   81  198 1
 164   82   83 1
 165   82  199 1
 166   83  200 1
 167   83  201 1
 168   83  202 1
 169   84   85 2
 170   84   87 1
 171   84   97 am
 172   86   87 1
 173   86  203 1
 174   87   88 1
 175   87  204 1
 176   88   89 1
 177   88  205 1
 178   88  206 1
 179   89   90 ar
 180   89   94 ar
 181   90   91 ar
 182   90  207 1
 183   91   92 ar
 184   91  208 1
 185   92   93 ar
 186   92  209 1
 187   93   94 ar
 188   93  210 1
 189   94  211 1
 190   95   96 2
 191   95   98 1
 192   95  103 1
 193   97   98 1
 194   97  212 1
 195   98   99 1
 196   98  213 1
 197   99  100 1
 198   99  102 1
 199   99  214 1
 200  100  101 1
 201  100  215 1
 202  100  216 1
 203  101  217 1
 204  101  218 1
 205  101  219 1
 206  102  220 1
 207  102  221 1
 208  102  222 1
 209  103  223 1
 210  104  105 2
 211  104  120 1
 212  106  107 1
 213  106  224 1
 214  106  225 1
 215  106  226 1
 216  107  108 1
 217  107  227 1
 218  107  228 1
 219  108  109 1
 220  108  229 1
 221  108  230 1
 222  109  110 1
 223  109  231 1
 224  109  232 1
 225  110  111 1
 226  110  233 1
 227  110  234 1
 228  111  112 1
 229  111  235 1
 230  111  236 1
 231  112  113 1
 232  112  237 1
 233  112  238 1
 234  113  114 1
 235  113  239 1
 236  113  240 1
 237  114  115 1
 238  114  241 1
 239  114  242 1
 240  115  116 1
 241  115  243 1
 242  115  244 1
 243  116  117 1
 244  116  245 1
 245  116  246 1
 246  117  118 1
 247  117  247 1
 248  117  248 1
 249  118  119 1
 250  118  249 1
 251  118  250 1
 252  119  120 1
 253  119  251 1
 254  119  252 1
 255  120  253 1
 256  120  254 1

#	End of record

