#	Name: ASD01914308
#	Creating user name:	WinNT
#	Creation time:	15. 06. 2019 20:03

#	Modifying user name:	WinNT
#	Modification time:	15. 06. 2019 20:03

#	Program:	/corina/corina34_cracker 3.40 0067  02.08.2006

@<TRIPOS>MOLECULE
ASD01914308
  30   30    0    0    0
SMALL
NO_CHARGES


@<TRIPOS>ATOM
   1 C1            -0.0159     1.3201     0.0093 C.ar    
   2 N2             0.0021    -0.0041     0.0020 N.ar    
   3 C3             1.1475    -0.6659    -0.0125 C.ar    
   4 C4             2.3410     0.0470    -0.0201 C.ar    
   5 C5             2.2828     1.4359    -0.0121 C.ar    
   6 N6             1.1013     2.0310     0.0025 N.ar    
   7 N7            -1.2357     1.9790     0.0186 N.3     
   8 C8            -1.0471     3.4364     0.0257 C.3     
   9 C9            -2.4120     4.1251    -0.0445 C.3     
  10 N10           -3.2327     3.6977     1.0971 N.3     
  11 C11           -3.4214     2.2403     1.0901 C.3     
  12 C12           -2.0565     1.5516     1.1603 C.3     
  13 O13            3.5377    -0.5994    -0.0346 O.3     
  14 C14            4.7136     0.2125    -0.0416 C.3     
  15 H15            1.1554    -1.7458    -0.0180 H       
  16 H16            3.1903     2.0215    -0.0173 H       
  17 H17           -0.5369     3.7326     0.9422 H       
  18 H18           -0.4471     3.7295    -0.8358 H       
  19 H19           -2.2761     5.2061    -0.0102 H       
  20 H20           -2.9107     3.8503    -0.9740 H       
  21 H21           -2.8283     4.0058     1.9687 H       
  22 H22           -4.0214     1.9472     1.9516 H       
  23 H23           -3.9316     1.9441     0.1735 H       
  24 H24           -2.1924     0.4706     1.1260 H       
  25 H25           -1.5578     1.8264     2.0897 H       
  26 H26            5.5965    -0.4266    -0.0531 H       
  27 H27            4.7123     0.8463    -0.9284 H       
  28 H28            4.7290     0.8373     0.8515 H       
  29 Cl29          10.5965    10.2061     7.0897 Cl      
  30 H30           10.5965    11.5761     7.0897 H       
@<TRIPOS>BOND
   1    1    2 ar
   2    1    6 ar
   3    1    7 1
   4    2    3 ar
   5    3    4 ar
   6    3   15 1
   7    4    5 ar
   8    4   13 1
   9    5    6 ar
  10    5   16 1
  11    7    8 1
  12    7   12 1
  13    8    9 1
  14    8   17 1
  15    8   18 1
  16    9   10 1
  17    9   19 1
  18    9   20 1
  19   10   11 1
  20   10   21 1
  21   11   12 1
  22   11   22 1
  23   11   23 1
  24   12   24 1
  25   12   25 1
  26   13   14 1
  27   14   26 1
  28   14   27 1
  29   14   28 1
  30   29   30 1

#	End of record

