#	Name: ASD01913360
#	Creating user name:	WinNT
#	Creation time:	15. 06. 2019 20:01

#	Modifying user name:	WinNT
#	Modification time:	15. 06. 2019 20:01

#	Program:	/corina/corina34_cracker 3.40 0067  02.08.2006

@<TRIPOS>MOLECULE
ASD01913360
  25   27    0    0    0
SMALL
NO_CHARGES


@<TRIPOS>ATOM
   1 C1            -0.0167     1.3789     0.0096 C.2     
   2 C2             0.0021    -0.0041     0.0020 C.2     
   3 C3             1.2507    -0.6673    -0.0135 C.2     
   4 N4             2.3633     0.0254    -0.0204 N.2     
   5 C5             2.3483     1.3645    -0.0130 C.2     
   6 N6             1.1652     2.0483     0.0019 N.pl3   
   7 N7             3.3231     2.2675    -0.0179 N.2     
   8 C8             2.8044     3.4880    -0.0067 C.2     
   9 N9             1.4951     3.4102     0.0057 N.2     
  10 C10           -1.2202    -0.7502     0.0101 C.1     
  11 C11           -2.2222    -1.3619     0.0168 C.1     
  12 C12           -3.4444    -2.1080     0.0249 C.ar    
  13 C13           -3.4142    -3.5050     0.0172 C.ar    
  14 C14           -4.5954    -4.2169     0.0250 C.ar    
  15 C15           -5.8461    -2.1679     0.0542 C.ar    
  16 C16           -4.6730    -1.4426     0.0465 C.ar    
  17 C17           -5.8084    -3.5511     0.0406 C.ar    
  18 H18           -0.9534     1.9164     0.0170 H       
  19 H19            1.2876    -1.7467    -0.0192 H       
  20 H20            3.3733     4.4060    -0.0072 H       
  21 H21           -2.4683    -4.0260     0.0046 H       
  22 H22           -4.5737    -5.2967     0.0186 H       
  23 H23           -6.7964    -1.6550     0.0712 H       
  24 H24           -4.7039    -0.3631     0.0575 H       
  25 H25           -6.7302    -4.1138     0.0467 H       
@<TRIPOS>BOND
   1    1    2 2
   2    1    6 1
   3    1   18 1
   4    2    3 1
   5    2   10 1
   6    3    4 2
   7    3   19 1
   8    4    5 1
   9    5    6 1
  10    5    7 2
  11    6    9 1
  12    7    8 1
  13    8    9 2
  14    8   20 1
  15   10   11 3
  16   11   12 1
  17   12   13 ar
  18   12   16 ar
  19   13   14 ar
  20   13   21 1
  21   14   17 ar
  22   14   22 1
  23   15   16 ar
  24   15   17 ar
  25   15   23 1
  26   16   24 1
  27   17   25 1

#	End of record

