#	Name: ASD01208463
#	Creating user name:	WinNT
#	Creation time:	15. 06. 2019 19:09

#	Modifying user name:	WinNT
#	Modification time:	15. 06. 2019 19:09

#	Program:	/corina/corina34_cracker 3.40 0067  02.08.2006

@<TRIPOS>MOLECULE
ASD01208463
  62   65    0    0    0
SMALL
NO_CHARGES


@<TRIPOS>ATOM
   1 O1             0.6292     1.7810     1.7852 O.3     
   2 C2             0.7096     0.4437     1.9552 C.2     
   3 N3             1.9269     0.0071     2.0991 N.2     
   4 C4             2.8453     1.1609     2.0414 C.3     
   5 C5             1.8770     2.3546     2.2259 C.3     
   6 C6             2.2771     3.5156     1.3523 C.2     
   7 O7             1.6083     3.8050     0.3886 O.2     
   8 O8             3.3763     4.2281     1.6449 O.3     
   9 N9            -1.7757    -0.0387     1.8301 N.pl3   
  10 C10           -0.4676    -0.4362     1.9759 C.2     
  11 C11           -0.4532    -1.8039     2.1443 C.2     
  12 C12           -1.7765    -2.2455     2.1000 C.2     
  13 C13           -2.5772    -1.1428     1.9056 C.2     
  14 C14           -4.0514    -1.1515     1.7976 C.ar    
  15 C15           -4.7529    -2.3542     1.8926 C.ar    
  16 C16           -6.1339    -2.3580     1.7909 C.ar    
  17 C17           -6.8204    -1.1683     1.5943 C.ar    
  18 C18           -6.1270     0.0298     1.4992 C.ar    
  19 C19           -4.7458     0.0433     1.6062 C.ar    
  20 O20           -6.8041     1.1922     1.3067 O.3     
  21 C21           -6.8122     1.7263     0.0572 C.ar    
  22 C22           -7.4631     2.9284    -0.1805 C.ar    
  23 C23           -7.4699     3.4691    -1.4517 C.ar    
  24 C24           -6.8290     2.8135    -2.4866 C.ar    
  25 C25           -6.1800     1.6152    -2.2525 C.ar    
  26 C26           -6.1649     1.0732    -0.9820 C.ar    
  27 S27           -6.8396     3.5060    -4.1068 S.o2    
  28 O28           -6.6857     2.3859    -4.9677 O.2     
  29 O29           -8.0178     4.2997    -4.1410 O.2     
  30 C30           -5.3621     4.5571    -4.1596 C.3     
  31 O31           -6.8179    -3.5288     1.8833 O.3     
  32 C32           -8.2445    -3.4503     1.8589 C.3     
  33 C33           -8.8348    -4.6798     2.5524 C.3     
  34 C34           -8.7280    -3.4019     0.4081 C.3     
  35 O35           -8.5078    -5.8520     1.8033 O.3     
  36 C36           -9.0146    -7.0629     2.3682 C.3     
  37 H37            3.5722     1.1206     2.8526 H       
  38 H38            3.3459     1.2118     1.0744 H       
  39 H39            1.8215     2.6552     3.2721 H       
  40 H40            3.5926     4.9636     1.0555 H       
  41 H41           -2.0791     0.8733     1.6996 H       
  42 H42            0.4220    -2.4211     2.2843 H       
  43 H43           -2.1115    -3.2673     2.1998 H       
  44 H44           -4.2193    -3.2808     2.0449 H       
  45 H45           -7.8975    -1.1748     1.5146 H       
  46 H46           -4.2071     0.9767     1.5366 H       
  47 H47           -7.9642     3.4408     0.6274 H       
  48 H48           -7.9766     4.4046    -1.6373 H       
  49 H49           -5.6808     1.1047    -3.0628 H       
  50 H50           -5.6539     0.1396    -0.7986 H       
  51 H51           -4.4760     3.9473    -3.9835 H       
  52 H52           -5.2883     5.0313    -5.1382 H       
  53 H53           -5.4344     5.3243    -3.3887 H       
  54 H54           -8.5678    -2.5492     2.3799 H       
  55 H55           -8.4212    -4.7637     3.5574 H       
  56 H56           -9.9183    -4.5777     2.6127 H       
  57 H57           -8.3075    -2.5259    -0.0859 H       
  58 H58           -8.4047    -4.3030    -0.1129 H       
  59 H59           -9.8162    -3.3420     0.3896 H       
  60 H60           -8.6047    -7.1962     3.3693 H       
  61 H61          -10.1019    -7.0102     2.4247 H       
  62 H62           -8.7238    -7.9058     1.7413 H       
@<TRIPOS>BOND
   1    1    2 1
   2    1    5 1
   3    2    3 2
   4    2   10 1
   5    3    4 1
   6    4    5 1
   7    4   37 1
   8    4   38 1
   9    5    6 1
  10    5   39 1
  11    6    7 2
  12    6    8 1
  13    8   40 1
  14    9   10 1
  15    9   13 1
  16    9   41 1
  17   10   11 2
  18   11   12 1
  19   11   42 1
  20   12   13 2
  21   12   43 1
  22   13   14 1
  23   14   15 ar
  24   14   19 ar
  25   15   16 ar
  26   15   44 1
  27   16   17 ar
  28   16   31 1
  29   17   18 ar
  30   17   45 1
  31   18   19 ar
  32   18   20 1
  33   19   46 1
  34   20   21 1
  35   21   22 ar
  36   21   26 ar
  37   22   23 ar
  38   22   47 1
  39   23   24 ar
  40   23   48 1
  41   24   25 ar
  42   24   27 1
  43   25   26 ar
  44   25   49 1
  45   26   50 1
  46   27   28 2
  47   27   29 2
  48   27   30 1
  49   30   51 1
  50   30   52 1
  51   30   53 1
  52   31   32 1
  53   32   33 1
  54   32   34 1
  55   32   54 1
  56   33   35 1
  57   33   55 1
  58   33   56 1
  59   34   57 1
  60   34   58 1
  61   34   59 1
  62   35   36 1
  63   36   60 1
  64   36   61 1
  65   36   62 1

#	End of record

