#	Name: ASD04591062
#	Creating user name:	WinNT
#	Creation time:	15. 06. 2019 20:52

#	Modifying user name:	WinNT
#	Modification time:	15. 06. 2019 20:52

#	Program:	/corina/corina34_cracker 3.40 0067  02.08.2006

@<TRIPOS>MOLECULE
ASD04591062
  69   75    0    0    0
SMALL
NO_CHARGES


@<TRIPOS>ATOM
   1 N1            -2.2397    -2.5185    -0.1075 N.ar    
   2 C2            -1.0903    -1.8672     0.0162 C.ar    
   3 N3             0.0783    -2.4878     0.0113 N.ar    
   4 C4             0.1423    -3.8095    -0.1199 C.ar    
   5 C5            -1.0615    -4.5304    -0.2530 C.ar    
   6 C6            -2.2660    -3.8341    -0.2426 C.ar    
   7 N7             1.1872    -4.6991    -0.1583 N.pl3   
   8 C8             0.7165    -5.9916    -0.3131 C.ar    
   9 C9            -0.6875    -5.9450    -0.3781 C.ar    
  10 C10            1.3430    -7.2275    -0.4079 C.ar    
  11 N11            0.6346    -8.3284    -0.5558 N.ar    
  12 C12           -0.6852    -8.3189    -0.6205 C.ar    
  13 C13           -1.3918    -7.1382    -0.5340 C.ar    
  14 N14           -1.1146    -0.4894     0.1550 N.pl3   
  15 C15           -2.3242     0.1998     0.0634 C.ar    
  16 N16           -3.4309    -0.4449    -0.2669 N.ar    
  17 N17           -4.5649     0.1485    -0.3631 N.ar    
  18 C18           -4.7032     1.4449    -0.1382 C.ar    
  19 C19           -3.5915     2.2108     0.2165 C.ar    
  20 C20           -2.3701     1.5698     0.3257 C.ar    
  21 N21           -5.9553     2.0443    -0.2556 N.3     
  22 C22            2.6015    -4.3322    -0.0512 C.3     
  23 C23           -6.3241     2.7398     0.9840 C.3     
  24 C24            2.9865    -3.3776    -1.1950 C.3     
  25 C25            3.4560    -2.0650    -0.5343 C.3     
  26 C26            3.9008    -2.4927     0.8863 C.3     
  27 C27            2.8505    -3.5663     1.2646 C.3     
  28 C28           -6.9764     1.0599    -0.6361 C.3     
  29 C29           -8.3040     1.7750    -0.8972 C.3     
  30 C30           -8.7341     2.5207     0.3691 C.3     
  31 C31           -7.6323     3.5050     0.7713 C.3     
  32 N32           -9.9780     3.2567     0.1067 N.3     
  33 C33          -11.0743     2.3343    -0.2417 C.3     
  34 C34          -12.2205     2.5873     0.7601 C.3     
  35 C35          -11.9340     4.0268     1.2628 C.3     
  36 C36          -10.3853     4.0470     1.2880 C.3     
  37 H37           -3.2050    -4.3581    -0.3429 H       
  38 H38            2.4203    -7.2866    -0.3604 H       
  39 H39           -1.2183    -9.2502    -0.7424 H       
  40 H40           -2.4705    -7.1375    -0.5876 H       
  41 H41           -0.2906    -0.0035     0.3160 H       
  42 H42           -3.6826     3.2705     0.4040 H       
  43 H43           -1.4780     2.1147     0.5971 H       
  44 H44            3.2229    -5.2270    -0.0865 H       
  45 H45           -6.4556     2.0112     1.7839 H       
  46 H46           -5.5342     3.4397     1.2566 H       
  47 H47            3.7953    -3.8088    -1.7849 H       
  48 H48            2.1211    -3.1874    -1.8298 H       
  49 H49            4.2950    -1.6396    -1.0850 H       
  50 H50            2.6342    -1.3511    -0.4780 H       
  51 H51            4.9022    -2.9227     0.8644 H       
  52 H52            3.8564    -1.6492     1.5753 H       
  53 H53            1.9309    -3.0949     1.6115 H       
  54 H54            3.2476    -4.2366     2.0269 H       
  55 H55           -6.6602     0.5397    -1.5403 H       
  56 H56           -7.1047     0.3391     0.1714 H       
  57 H57           -8.1799     2.4861    -1.7139 H       
  58 H58           -9.0655     1.0423    -1.1644 H       
  59 H59           -8.8960     1.8057     1.1757 H       
  60 H60           -7.9139     4.0084     1.6962 H       
  61 H61           -7.4976     4.2434    -0.0191 H       
  62 H62          -11.4181     2.5337    -1.2566 H       
  63 H63          -10.7312     1.3030    -0.1599 H       
  64 H64          -13.1875     2.5391     0.2595 H       
  65 H65          -12.1761     1.8753     1.5843 H       
  66 H66          -12.3228     4.7685     0.5651 H       
  67 H67          -12.3429     4.1802     2.2614 H       
  68 H68          -10.0146     3.5822     2.2017 H       
  69 H69          -10.0177     5.0698     1.2055 H       
@<TRIPOS>BOND
   1    1    2 ar
   2    1    6 ar
   3    2    3 ar
   4    2   14 1
   5    3    4 ar
   6    4    5 ar
   7    4    7 1
   8    5    6 ar
   9    5    9 1
  10    6   37 1
  11    7    8 1
  12    7   22 1
  13    8    9 ar
  14    8   10 ar
  15    9   13 ar
  16   10   11 ar
  17   10   38 1
  18   11   12 ar
  19   12   13 ar
  20   12   39 1
  21   13   40 1
  22   14   15 1
  23   14   41 1
  24   15   16 ar
  25   15   20 ar
  26   16   17 ar
  27   17   18 ar
  28   18   19 ar
  29   18   21 1
  30   19   20 ar
  31   19   42 1
  32   20   43 1
  33   21   28 1
  34   21   23 1
  35   22   24 1
  36   22   27 1
  37   22   44 1
  38   23   31 1
  39   23   45 1
  40   23   46 1
  41   24   25 1
  42   24   47 1
  43   24   48 1
  44   25   26 1
  45   25   49 1
  46   25   50 1
  47   26   27 1
  48   26   51 1
  49   26   52 1
  50   27   53 1
  51   27   54 1
  52   28   29 1
  53   28   55 1
  54   28   56 1
  55   29   30 1
  56   29   57 1
  57   29   58 1
  58   30   31 1
  59   30   32 1
  60   30   59 1
  61   31   60 1
  62   31   61 1
  63   32   33 1
  64   32   36 1
  65   33   34 1
  66   33   62 1
  67   33   63 1
  68   34   35 1
  69   34   64 1
  70   34   65 1
  71   35   36 1
  72   35   66 1
  73   35   67 1
  74   36   68 1
  75   36   69 1

#	End of record

