#	Name: ASD01816744
#	Creating user name:	WinNT
#	Creation time:	15. 06. 2019 19:35

#	Modifying user name:	WinNT
#	Modification time:	15. 06. 2019 19:35

#	Program:	/corina/corina34_cracker 3.40 0067  02.08.2006

@<TRIPOS>MOLECULE
ASD01816744
  60   64    0    0    0
SMALL
NO_CHARGES


@<TRIPOS>ATOM
   1 C1             0.2010     1.3129     1.7836 C.2     
   2 C2             0.0828     0.0468     1.1942 C.2     
   3 C3             1.1693    -0.5183     0.5934 C.2     
   4 C4             2.3890     0.1788     0.5757 C.2     
   5 N5             2.4761     1.4136     1.1593 N.am    
   6 C6             1.3832     1.9685     1.7566 C.2     
   7 C7             3.5072    -0.3994    -0.0408 C.2     
   8 C8             4.6969     0.2698    -0.0629 C.2     
   9 C9             4.7822     1.5388     0.5376 C.2     
  10 C10            3.6405     2.0934     1.1499 C.2     
  11 C11            3.3962    -1.7601    -0.6789 C.3     
  12 O12            3.7056     3.1934     1.6725 O.2     
  13 C13            6.0484     2.2779     0.5274 C.2     
  14 N14            7.1646     1.6959     0.0460 N.am    
  15 O15            6.0915     3.4172     0.9539 O.2     
  16 N16            3.1220    -1.6071    -2.1139 N.3     
  17 C17            3.2414    -2.8941    -2.8131 C.3     
  18 C18            2.8716    -2.7075    -4.2865 C.3     
  19 N19            3.7576    -1.7008    -4.8875 N.3     
  20 C20            3.6382    -0.4138    -4.1884 C.3     
  21 C21            4.0080    -0.6004    -2.7150 C.3     
  22 C22            3.4978    -1.5559    -6.2472 C.ar    
  23 C23            4.2336    -0.6467    -7.0016 C.ar    
  24 C24            3.9793    -0.5008    -8.3465 C.ar    
  25 C25            2.9808    -1.2675    -8.9547 C.ar    
  26 C26            2.2439    -2.1802    -8.1940 C.ar    
  27 C27            2.5067    -2.3245    -6.8505 C.ar    
  28 C28            8.3463     2.4353    -0.0658 C.ar    
  29 C29            9.5750     1.8173     0.1274 C.ar    
  30 C30           10.7401     2.5504     0.0164 C.ar    
  31 C31           10.6843     3.8986    -0.2863 C.ar    
  32 C32            9.4625     4.5171    -0.4788 C.ar    
  33 C33            8.2940     3.7882    -0.3758 C.ar    
  34 C34            2.7132    -1.1180   -10.3535 C.1     
  35 N35            2.5010    -0.9995   -11.4632 N.1     
  36 H36           -0.6562     1.7682     2.2571 H       
  37 H37           -0.8612    -0.4775     1.2158 H       
  38 H38            1.0927    -1.4934     0.1355 H       
  39 H39            1.4630     2.9434     2.2145 H       
  40 H40            5.5625    -0.1703    -0.5356 H       
  41 H41            4.3321    -2.3023    -0.5436 H       
  42 H42            2.5835    -2.3156    -0.2109 H       
  43 H43            7.1483     0.7640    -0.2230 H       
  44 H44            4.2673    -3.2547    -2.7385 H       
  45 H45            2.5668    -3.6192    -2.3578 H       
  46 H46            2.9873    -3.6548    -4.8132 H       
  47 H47            1.8369    -2.3730    -4.3622 H       
  48 H48            4.3128     0.3113    -4.6436 H       
  49 H49            2.6123    -0.0532    -4.2629 H       
  50 H50            3.8923     0.3468    -2.1882 H       
  51 H51            5.0426    -0.9349    -2.6393 H       
  52 H52            5.0047    -0.0547    -6.5311 H       
  53 H53            4.5501     0.2054    -8.9312 H       
  54 H54            1.4717    -2.7738    -8.6607 H       
  55 H55            1.9381    -3.0296    -6.2624 H       
  56 H56            9.6192     0.7646     0.3646 H       
  57 H57           11.6958     2.0704     0.1665 H       
  58 H58           11.5968     4.4698    -0.3722 H       
  59 H59            9.4223     5.5703    -0.7144 H       
  60 H60            7.3401     4.2719    -0.5262 H       
@<TRIPOS>BOND
   1    1    2 1
   2    1    6 2
   3    1   36 1
   4    2    3 2
   5    2   37 1
   6    3    4 1
   7    3   38 1
   8    4    5 1
   9    4    7 2
  10    5    6 1
  11    5   10 am
  12    6   39 1
  13    7    8 1
  14    7   11 1
  15    8    9 2
  16    8   40 1
  17    9   10 1
  18    9   13 1
  19   10   12 2
  20   11   16 1
  21   11   41 1
  22   11   42 1
  23   13   15 2
  24   13   14 am
  25   14   28 1
  26   14   43 1
  27   16   17 1
  28   16   21 1
  29   17   18 1
  30   17   44 1
  31   17   45 1
  32   18   19 1
  33   18   46 1
  34   18   47 1
  35   19   20 1
  36   19   22 1
  37   20   21 1
  38   20   48 1
  39   20   49 1
  40   21   50 1
  41   21   51 1
  42   22   23 ar
  43   22   27 ar
  44   23   24 ar
  45   23   52 1
  46   24   25 ar
  47   24   53 1
  48   25   26 ar
  49   25   34 1
  50   26   27 ar
  51   26   54 1
  52   27   55 1
  53   28   29 ar
  54   28   33 ar
  55   29   30 ar
  56   29   56 1
  57   30   31 ar
  58   30   57 1
  59   31   32 ar
  60   31   58 1
  61   32   33 ar
  62   32   59 1
  63   33   60 1
  64   34   35 3

#	End of record

