#	Name: ASD01180202
#	Creating user name:	WinNT
#	Creation time:	15. 06. 2019 19:07

#	Modifying user name:	WinNT
#	Modification time:	15. 06. 2019 19:07

#	Program:	/corina/corina34_cracker 3.40 0067  02.08.2006

@<TRIPOS>MOLECULE
ASD01180202
  67   69    0    0    0
SMALL
NO_CHARGES


@<TRIPOS>ATOM
   1 C1             0.6278     1.2663    -0.5730 C.ar    
   2 C2             0.5630    -0.1096    -0.4857 C.ar    
   3 C3             1.7348    -0.8629    -0.5146 C.ar    
   4 C4             2.9664    -0.2219    -0.6316 C.ar    
   5 C5             3.0195     1.1546    -0.7182 C.ar    
   6 C6             1.8531     1.8975    -0.6890 C.ar    
   7 C7             1.6714    -2.3425    -0.4206 C.ar    
   8 C8             2.8432    -3.0958    -0.4495 C.ar    
   9 C9             2.7785    -4.4717    -0.3618 C.ar    
  10 C10            1.5531    -5.1029    -0.2459 C.ar    
  11 C11            0.3867    -4.3600    -0.2167 C.ar    
  12 C12            0.4402    -2.9832    -0.2975 C.ar    
  13 C13            1.4887    -6.6056    -0.1515 C.3     
  14 C14            1.3072    -7.0174     1.3108 C.3     
  15 N15            0.3565    -7.0964    -0.9412 N.pl3   
  16 C16            0.3941    -8.3672    -1.4895 C.ar    
  17 N17           -0.5777    -8.7572    -2.3030 N.ar    
  18 C18           -0.5834    -9.9562    -2.8473 C.ar    
  19 C19            0.4450   -10.8608    -2.5798 C.ar    
  20 C20            1.4866   -10.4744    -1.7222 C.ar    
  21 C21            1.4560    -9.2168    -1.1832 C.ar    
  22 C22            0.4372   -12.2043    -3.1895 C.2     
  23 N23           -0.5680   -12.5656    -4.0114 N.am    
  24 O24            1.3377   -12.9857    -2.9505 O.2     
  25 C25           -0.5758   -13.8996    -4.6168 C.3     
  26 C26           -1.8164   -14.0521    -5.4991 C.3     
  27 C27           -1.8244   -15.4244    -6.1218 C.2     
  28 O28           -2.8256   -15.7842    -6.9403 O.3     
  29 O29           -0.9296   -16.2008    -5.8843 O.2     
  30 C30            2.5566    -6.6355     2.1070 C.3     
  31 C31            2.3237    -6.9247     3.5913 C.3     
  32 C32            3.7490    -7.4546     1.6089 C.3     
  33 C33            1.9175     3.4001    -0.7839 C.3     
  34 C34            1.8480     3.8218    -2.2530 C.3     
  35 H35           -0.2801     1.8509    -0.5553 H       
  36 H36           -0.3942    -0.6015    -0.3949 H       
  37 H37            3.8778    -0.8009    -0.6541 H       
  38 H38            3.9736     1.6525    -0.8089 H       
  39 H39            3.8004    -2.6040    -0.5407 H       
  40 H40            3.6861    -5.0566    -0.3841 H       
  41 H41           -0.5673    -4.8580    -0.1261 H       
  42 H42           -0.4711    -2.4041    -0.2747 H       
  43 H43            2.4137    -7.0339    -0.5375 H       
  44 H44            0.4401    -6.5052     1.7276 H       
  45 H45            1.1550    -8.0952     1.3685 H       
  46 H46           -0.4194    -6.5310    -1.0799 H       
  47 H47           -1.3905   -10.2418    -3.5057 H       
  48 H48            2.2963   -11.1524    -1.4963 H       
  49 H49            2.2424    -8.8888    -0.5196 H       
  50 H50           -1.2864   -11.9423    -4.2021 H       
  51 H51            0.3201   -14.0282    -5.2242 H       
  52 H52           -0.5936   -14.6550    -3.8311 H       
  53 H53           -2.7123   -13.9235    -4.8916 H       
  54 H54           -1.7986   -13.2967    -6.2847 H       
  55 H55           -2.7873   -16.6745    -7.3158 H       
  56 H56            2.7632    -5.5738     1.9718 H       
  57 H57            2.1171    -7.9863     3.7265 H       
  58 H58            3.2138    -6.6526     4.1585 H       
  59 H59            1.4742    -6.3411     3.9462 H       
  60 H60            3.9751    -7.1779     0.5791 H       
  61 H61            4.6162    -7.2534     2.2379 H       
  62 H62            3.5053    -8.5160     1.6547 H       
  63 H63            1.0782     3.8348    -0.2410 H       
  64 H64            2.8530     3.7519    -0.3488 H       
  65 H65            1.8946     4.9086    -2.3217 H       
  66 H66            2.6873     3.3871    -2.7959 H       
  67 H67            0.9126     3.4700    -2.6881 H       
@<TRIPOS>BOND
   1    1    2 ar
   2    1    6 ar
   3    1   35 1
   4    2    3 ar
   5    2   36 1
   6    3    4 ar
   7    3    7 1
   8    4    5 ar
   9    4   37 1
  10    5    6 ar
  11    5   38 1
  12    6   33 1
  13    7    8 ar
  14    7   12 ar
  15    8    9 ar
  16    8   39 1
  17    9   10 ar
  18    9   40 1
  19   10   11 ar
  20   10   13 1
  21   11   12 ar
  22   11   41 1
  23   12   42 1
  24   13   14 1
  25   13   15 1
  26   13   43 1
  27   14   30 1
  28   14   44 1
  29   14   45 1
  30   15   16 1
  31   15   46 1
  32   16   17 ar
  33   16   21 ar
  34   17   18 ar
  35   18   19 ar
  36   18   47 1
  37   19   20 ar
  38   19   22 1
  39   20   21 ar
  40   20   48 1
  41   21   49 1
  42   22   23 am
  43   22   24 2
  44   23   25 1
  45   23   50 1
  46   25   26 1
  47   25   51 1
  48   25   52 1
  49   26   27 1
  50   26   53 1
  51   26   54 1
  52   27   28 1
  53   27   29 2
  54   28   55 1
  55   30   31 1
  56   30   32 1
  57   30   56 1
  58   31   57 1
  59   31   58 1
  60   31   59 1
  61   32   60 1
  62   32   61 1
  63   32   62 1
  64   33   34 1
  65   33   63 1
  66   33   64 1
  67   34   65 1
  68   34   66 1
  69   34   67 1

#	End of record

