#	Name: ASD04880340
#	Creating user name:	WinNT
#	Creation time:	15. 06. 2019 20:53

#	Modifying user name:	WinNT
#	Modification time:	15. 06. 2019 20:53

#	Program:	/corina/corina34_cracker 3.40 0067  02.08.2006

@<TRIPOS>MOLECULE
ASD04880340
  51   54    0    0    0
SMALL
NO_CHARGES


@<TRIPOS>ATOM
   1 C1            -0.0112     1.3873     0.0513 C.ar    
   2 C2             1.1765     2.0952     0.0836 C.ar    
   3 C3             2.3833     1.4267     0.0557 C.ar    
   4 C4             2.4051     0.0324    -0.0048 C.ar    
   5 C5             1.2039    -0.6781    -0.0368 C.ar    
   6 C6             0.0020     0.0027    -0.0088 C.ar    
   7 C7             3.6948    -0.6889    -0.0354 C.2     
   8 O8             3.7146    -1.9025     0.0378 O.2     
   9 N9             4.8489    -0.0014    -0.1445 N.am    
  10 C10            6.2000    -0.5795    -0.0682 C.3     
  11 N11            4.9576     1.3718    -0.3538 N.2     
  12 C12            6.1713     1.7992    -0.4239 C.2     
  13 C13            7.1258     0.6389    -0.2546 C.3     
  14 C14            6.5679     3.2025    -0.6391 C.ar    
  15 C15            5.5918     4.1918    -0.7849 C.ar    
  16 C16            7.9208     3.5478    -0.6920 C.ar    
  17 C17            8.2896     4.8612    -0.8929 C.ar    
  18 C18            7.3202     5.8423    -1.0424 C.ar    
  19 C19            5.9694     5.5062    -0.9860 C.ar    
  20 F20           -1.1621    -0.6823    -0.0396 F       
  21 O21            7.6894     7.1356    -1.2398 O.3     
  22 O22            5.0220     6.4708    -1.1330 O.3     
  23 C23            3.6566     6.0549    -1.0642 C.3     
  24 C24            9.0910     7.4110    -1.2820 C.3     
  25 C25            2.7576     7.2504    -1.2473 C.ar    
  26 C26            2.3416     7.6149    -2.5142 C.ar    
  27 C27            1.5169     8.7115    -2.6821 C.ar    
  28 C28            1.1079     9.4435    -1.5831 C.ar    
  29 C29            1.5232     9.0785    -0.3161 C.ar    
  30 C30            2.3443     7.9793    -0.1478 C.ar    
  31 H31           -0.9529     1.9155     0.0775 H       
  32 H32            1.1594     3.1740     0.1304 H       
  33 H33            3.3095     1.9815     0.0802 H       
  34 H34            1.2141    -1.7570    -0.0839 H       
  35 H35            6.3652    -1.0415     0.9051 H       
  36 H36            6.3531    -1.3036    -0.8685 H       
  37 H37            7.7507     0.7833     0.6267 H       
  38 H38            7.7419     0.5174    -1.1456 H       
  39 H39            4.5450     3.9299    -0.7410 H       
  40 H40            8.6776     2.7861    -0.5752 H       
  41 H41            9.3357     5.1268    -0.9336 H       
  42 H42            3.4583     5.3273    -1.8511 H       
  43 H43            3.4637     5.6007    -0.0923 H       
  44 H44            9.5474     6.8486    -2.0965 H       
  45 H45            9.2470     8.4774    -1.4447 H       
  46 H46            9.5476     7.1170    -0.3369 H       
  47 H47            2.6612     7.0430    -3.3728 H       
  48 H48            1.1925     8.9966    -3.6720 H       
  49 H49            0.4642    10.3007    -1.7144 H       
  50 H50            1.2039     9.6506     0.5425 H       
  51 H51            2.6687     7.6941     0.8421 H       
@<TRIPOS>BOND
   1    1    2 ar
   2    1    6 ar
   3    1   31 1
   4    2    3 ar
   5    2   32 1
   6    3    4 ar
   7    3   33 1
   8    4    5 ar
   9    4    7 1
  10    5    6 ar
  11    5   34 1
  12    6   20 1
  13    7    8 2
  14    7    9 am
  15    9   10 1
  16    9   11 1
  17   10   13 1
  18   10   35 1
  19   10   36 1
  20   11   12 2
  21   12   13 1
  22   12   14 1
  23   13   37 1
  24   13   38 1
  25   14   15 ar
  26   14   16 ar
  27   15   19 ar
  28   15   39 1
  29   16   17 ar
  30   16   40 1
  31   17   18 ar
  32   17   41 1
  33   18   19 ar
  34   18   21 1
  35   19   22 1
  36   21   24 1
  37   22   23 1
  38   23   25 1
  39   23   42 1
  40   23   43 1
  41   24   44 1
  42   24   45 1
  43   24   46 1
  44   25   26 ar
  45   25   30 ar
  46   26   27 ar
  47   26   47 1
  48   27   28 ar
  49   27   48 1
  50   28   29 ar
  51   28   49 1
  52   29   30 ar
  53   29   50 1
  54   30   51 1

#	End of record

