#	Name: ASD03730950
#	Creating user name:	WinNT
#	Creation time:	15. 06. 2019 20:44

#	Modifying user name:	WinNT
#	Modification time:	15. 06. 2019 20:44

#	Program:	/corina/corina34_cracker 3.40 0067  02.08.2006

@<TRIPOS>MOLECULE
ASD03730950
  62   69    0    0    0
SMALL
NO_CHARGES


@<TRIPOS>ATOM
   1 C1            -0.0181     1.4736     0.0142 C.2     
   2 C2             0.0015    -0.0044     0.0109 C.ar    
   3 C3             1.2180    -0.6894    -0.0003 C.ar    
   4 C4             1.2293    -2.0687    -0.0033 C.ar    
   5 C5             0.0384    -2.7734     0.0046 C.ar    
   6 C6            -1.1705    -2.1009     0.0157 C.ar    
   7 C7            -1.1959    -0.7214     0.0247 C.ar    
   8 O8             1.0265     2.0954     0.0072 O.2     
   9 N9            -1.1942     2.1319     0.0193 N.am    
  10 C10            2.5414    -2.8098    -0.0158 C.3     
  11 O11           -0.9053    -3.3044     6.2744 O.3     
  12 C12           -0.9481    -3.5547     7.6916 C.3     
  13 O13           -0.0434    -4.6603     7.8713 O.3     
  14 C14            0.8557    -4.5673     6.8477 C.ar    
  15 C15            0.3247    -3.7343     5.8656 C.ar    
  16 C16            2.1051    -5.1347     6.6720 C.ar    
  17 C17            2.8386    -4.8808     5.5170 C.ar    
  18 C18            2.2941    -4.0536     4.5394 C.ar    
  19 C19            1.0513    -3.4815     4.7142 C.ar    
  20 O20            4.0791    -5.3196     5.1580 O.3     
  21 C21            3.2971    -3.9968     3.4183 C.3     
  22 C22            4.2463    -5.1602     3.7360 C.3     
  23 N23            2.9781    -3.0529     1.3613 N.am    
  24 C24            2.6528    -4.1518     2.0709 C.2     
  25 C25            4.0199    -2.6835     3.3650 C.ar    
  26 C26            4.7907    -1.9845     4.2668 C.ar    
  27 C27            5.3372    -0.7640     3.9117 C.ar    
  28 C28            5.1067    -0.2478     2.6495 C.ar    
  29 C29            4.3345    -0.9438     1.7430 C.ar    
  30 C30            3.7808    -2.1732     2.0916 C.ar    
  31 O31            1.9732    -5.0833     1.6947 O.2     
  32 O32           -1.0676     7.6162     0.6218 O.3     
  33 C33            0.2749     7.7129     1.1330 C.3     
  34 O34            0.5136     6.4179     1.7153 O.3     
  35 C35           -0.2878     5.5545     1.0255 C.ar    
  36 C36           -1.2606     6.2909     0.3527 C.ar    
  37 C37           -0.2671     4.1747     0.9142 C.ar    
  38 C38           -1.2149     3.5273     0.1327 C.ar    
  39 C39           -2.1828     4.2639    -0.5366 C.ar    
  40 C40           -2.2039     5.6414    -0.4264 C.ar    
  41 H41            2.1481    -0.1405    -0.0068 H       
  42 H42            0.0528    -3.8533     0.0018 H       
  43 H43           -2.0963    -2.6569     0.0218 H       
  44 H44           -2.1402    -0.1975     0.0378 H       
  45 H45           -2.0262     1.6389    -0.0555 H       
  46 H46            2.4158    -3.7622    -0.5307 H       
  47 H47            3.2911    -2.2124    -0.5346 H       
  48 H48           -0.6013    -2.6822     8.2453 H       
  49 H49           -1.9561    -3.8305     8.0015 H       
  50 H50            2.5139    -5.7789     7.4364 H       
  51 H51            0.6437    -2.8351     3.9511 H       
  52 H52            5.2761    -4.8967     3.4944 H       
  53 H53            3.9424    -6.0634     3.2068 H       
  54 H54            4.9692    -2.3894     5.2519 H       
  55 H55            5.9426    -0.2159     4.6184 H       
  56 H56            5.5332     0.7050     2.3724 H       
  57 H57            4.1586    -0.5339     0.7594 H       
  58 H58            0.9798     7.9048     0.3240 H       
  59 H59            0.3404     8.4922     1.8923 H       
  60 H60            0.4864     3.6020     1.4346 H       
  61 H61           -2.9196     3.7600    -1.1445 H       
  62 H62           -2.9579     6.2124    -0.9478 H       
@<TRIPOS>BOND
   1    1    2 1
   2    1    8 2
   3    1    9 am
   4    2    3 ar
   5    2    7 ar
   6    3    4 ar
   7    3   41 1
   8    4    5 ar
   9    4   10 1
  10    5    6 ar
  11    5   42 1
  12    6    7 ar
  13    6   43 1
  14    7   44 1
  15    9   38 1
  16    9   45 1
  17   10   23 1
  18   10   46 1
  19   10   47 1
  20   11   12 1
  21   11   15 1
  22   12   13 1
  23   12   48 1
  24   12   49 1
  25   13   14 1
  26   14   15 ar
  27   14   16 ar
  28   15   19 ar
  29   16   17 ar
  30   16   50 1
  31   17   18 ar
  32   17   20 1
  33   18   19 ar
  34   18   21 1
  35   19   51 1
  36   20   22 1
  37   21   22 1
  38   21   24 1
  39   21   25 1
  40   22   52 1
  41   22   53 1
  42   23   24 am
  43   23   30 1
  44   24   31 2
  45   25   26 ar
  46   25   30 ar
  47   26   27 ar
  48   26   54 1
  49   27   28 ar
  50   27   55 1
  51   28   29 ar
  52   28   56 1
  53   29   30 ar
  54   29   57 1
  55   32   33 1
  56   32   36 1
  57   33   34 1
  58   33   58 1
  59   33   59 1
  60   34   35 1
  61   35   36 ar
  62   35   37 ar
  63   36   40 ar
  64   37   38 ar
  65   37   60 1
  66   38   39 ar
  67   39   40 ar
  68   39   61 1
  69   40   62 1

#	End of record

