#	Name: ASD01910608
#	Creating user name:	WinNT
#	Creation time:	15. 06. 2019 19:56

#	Modifying user name:	WinNT
#	Modification time:	15. 06. 2019 19:56

#	Program:	/corina/corina34_cracker 3.40 0067  02.08.2006

@<TRIPOS>MOLECULE
ASD01910608
  44   47    0    0    0
SMALL
NO_CHARGES


@<TRIPOS>ATOM
   1 C1            -0.6673     1.8307    -1.9801 C.ar    
   2 C2            -0.7372     0.4749    -1.7134 C.ar    
   3 C3             0.3303    -0.1757    -1.1206 C.ar    
   4 C4             1.4724     0.5247    -0.7914 C.ar    
   5 C5             1.5496     1.8926    -1.0582 C.ar    
   6 C6             0.4691     2.5428    -1.6564 C.ar    
   7 C7             2.7700     2.6494    -0.7077 C.2     
   8 N8             2.9813     3.9392    -0.9007 N.2     
   9 C9             4.2156     4.1759    -0.4300 C.2     
  10 N10            4.6891     3.0503     0.0170 N.2     
  11 O11            3.8766     2.1613    -0.1264 O.3     
  12 C12            4.9249     5.5055    -0.4216 C.3     
  13 C13            5.2614     5.8959     1.0194 C.3     
  14 C14            5.9525     7.2614     1.0316 C.3     
  15 C15            7.2590     7.1751     0.2364 C.3     
  16 N16            6.9616     6.6613    -1.1076 N.am    
  17 C17            6.2198     5.3993    -1.2333 C.3     
  18 C18            7.3615     7.3350    -2.2042 C.2     
  19 C19            8.0326     8.6435    -2.0635 C.ar    
  20 O20            7.1701     6.8657    -3.3093 O.2     
  21 C21            9.1154     8.7857    -1.1932 C.ar    
  22 C22            9.7381    10.0088    -1.0660 C.ar    
  23 C23            9.2913    11.0967    -1.8004 C.ar    
  24 C24            8.2163    10.9612    -2.6656 C.ar    
  25 C25            7.5900     9.7412    -2.8047 C.ar    
  26 F26            9.9052    12.2933    -1.6720 F       
  27 H27           -1.5024     2.3318    -2.4468 H       
  28 H28           -1.6291    -0.0779    -1.9688 H       
  29 H29            0.2692    -1.2342    -0.9147 H       
  30 H30            2.3046     0.0158    -0.3280 H       
  31 H31            0.5227     3.6010    -1.8657 H       
  32 H32            4.2795     6.2649    -0.8630 H       
  33 H33            4.3437     5.9482     1.6052 H       
  34 H34            5.9263     5.1485     1.4523 H       
  35 H35            5.2979     8.0045     0.5763 H       
  36 H36            6.1708     7.5494     2.0600 H       
  37 H37            7.7053     8.1664     0.1582 H       
  38 H38            7.9500     6.4998     0.7411 H       
  39 H39            6.8260     4.5793    -0.8485 H       
  40 H40            5.9804     5.2190    -2.2813 H       
  41 H41            9.4640     7.9390    -0.6205 H       
  42 H42           10.5754    10.1200    -0.3930 H       
  43 H43            7.8721    11.8119    -3.2350 H       
  44 H44            6.7530     9.6366    -3.4791 H       
@<TRIPOS>BOND
   1    1    2 ar
   2    1    6 ar
   3    1   27 1
   4    2    3 ar
   5    2   28 1
   6    3    4 ar
   7    3   29 1
   8    4    5 ar
   9    4   30 1
  10    5    6 ar
  11    5    7 1
  12    6   31 1
  13    7    8 2
  14    7   11 1
  15    8    9 1
  16    9   10 2
  17    9   12 1
  18   10   11 1
  19   12   13 1
  20   12   17 1
  21   12   32 1
  22   13   14 1
  23   13   33 1
  24   13   34 1
  25   14   15 1
  26   14   35 1
  27   14   36 1
  28   15   16 1
  29   15   37 1
  30   15   38 1
  31   16   17 1
  32   16   18 am
  33   17   39 1
  34   17   40 1
  35   18   19 1
  36   18   20 2
  37   19   21 ar
  38   19   25 ar
  39   21   22 ar
  40   21   41 1
  41   22   23 ar
  42   22   42 1
  43   23   24 ar
  44   23   26 1
  45   24   25 ar
  46   24   43 1
  47   25   44 1

#	End of record

