#	Name: ASD00431279
#	Creating user name:	WinNT
#	Creation time:	15. 06. 2019 18:35

#	Modifying user name:	WinNT
#	Modification time:	15. 06. 2019 18:35

#	Program:	/corina/corina34_cracker 3.40 0067  02.08.2006

@<TRIPOS>MOLECULE
ASD00431279
  37   38    0    0    0
SMALL
NO_CHARGES


@<TRIPOS>ATOM
   1 C1             4.2138    -4.7805    -1.0760 C.ar    
   2 C2             4.1058    -4.1319     0.1564 C.ar    
   3 C3             3.9623    -2.7623     0.2017 C.ar    
   4 C4             3.9245    -2.0265    -0.9763 C.ar    
   5 C5             4.0312    -2.6680    -2.2042 C.ar    
   6 C6             4.1758    -4.0371    -2.2580 C.ar    
   7 C7             4.3738    -6.2469    -1.1289 C.2     
   8 Cl8            4.4279    -7.1677     0.3417 Cl      
   9 N9             4.4738    -6.8466    -2.2726 N.2     
  10 O10            3.7825    -0.6770    -0.9275 O.3     
  11 C11            4.8737     0.0685    -0.6081 C.ar    
  12 C12            6.0944    -0.5504    -0.3809 C.ar    
  13 C13            7.2028     0.2070    -0.0565 C.ar    
  14 C14            7.0956     1.5864     0.0422 C.ar    
  15 C15            5.8752     2.2053    -0.1850 C.ar    
  16 C16            4.7679     1.4486    -0.5150 C.ar    
  17 O17            8.1869     2.3319     0.3620 O.3     
  18 C18            9.3893     1.6234     0.6691 C.3     
  19 C19           10.1278     1.2861    -0.6276 C.3     
  20 C20           10.2832     2.4953     1.5532 C.3     
  21 O21            4.6272    -8.2533    -2.3233 O.3     
  22 H22            4.1344    -4.7032     1.0724 H       
  23 H23            3.8787    -2.2601     1.1542 H       
  24 H24            4.0010    -2.0926    -3.1177 H       
  25 H25            4.2594    -4.5350    -3.2127 H       
  26 H26            6.1778    -1.6245    -0.4574 H       
  27 H27            8.1530    -0.2748     0.1207 H       
  28 H28            5.7918     3.2793    -0.1078 H       
  29 H29            3.8187     1.9309    -0.6962 H       
  30 H30            9.1434     0.7023     1.1974 H       
  31 H31            9.4910     0.6650    -1.2575 H       
  32 H32           10.3737     2.2073    -1.1559 H       
  33 H33           11.0450     0.7457    -0.3934 H       
  34 H34            9.7571     2.7356     2.4771 H       
  35 H35           11.2004     1.9548     1.7875 H       
  36 H36           10.5291     3.4164     1.0250 H       
  37 H37            4.6933    -8.6097    -3.2198 H       
@<TRIPOS>BOND
   1    1    2 ar
   2    1    6 ar
   3    1    7 1
   4    2    3 ar
   5    2   22 1
   6    3    4 ar
   7    3   23 1
   8    4    5 ar
   9    4   10 1
  10    5    6 ar
  11    5   24 1
  12    6   25 1
  13    7    8 1
  14    7    9 2
  15    9   21 1
  16   10   11 1
  17   11   12 ar
  18   11   16 ar
  19   12   13 ar
  20   12   26 1
  21   13   14 ar
  22   13   27 1
  23   14   15 ar
  24   14   17 1
  25   15   16 ar
  26   15   28 1
  27   16   29 1
  28   17   18 1
  29   18   19 1
  30   18   20 1
  31   18   30 1
  32   19   31 1
  33   19   32 1
  34   19   33 1
  35   20   34 1
  36   20   35 1
  37   20   36 1
  38   21   37 1

#	End of record

