#	Name: ASD01813454
#	Creating user name:	WinNT
#	Creation time:	15. 06. 2019 19:30

#	Modifying user name:	WinNT
#	Modification time:	15. 06. 2019 19:30

#	Program:	/corina/corina34_cracker 3.40 0067  02.08.2006

@<TRIPOS>MOLECULE
ASD01813454
  33   35    0    0    0
SMALL
NO_CHARGES


@<TRIPOS>ATOM
   1 C1            -0.0168     1.3834    -0.0477 C.ar    
   2 C2             0.0020    -0.0038    -0.0548 C.ar    
   3 C3             1.1976    -0.6920    -0.0510 C.ar    
   4 C4             2.4035     0.0084    -0.0399 C.ar    
   5 C5             2.3796     1.4130    -0.0328 C.ar    
   6 C6             1.1627     2.0947    -0.0367 C.ar    
   7 N7             3.6056    -0.6668    -0.0350 N.pl3   
   8 C8             4.7891    -0.0410    -0.0231 C.2     
   9 C9             4.8932     1.3356    -0.0148 C.2     
  10 C10            3.6619     2.1417    -0.0212 C.2     
  11 O11            3.7002     3.3596    -0.0146 O.2     
  12 C12            6.2115     1.9851    -0.0008 C.2     
  13 O13            6.3001     3.3303     0.0072 O.3     
  14 O14            7.2221     1.3094     0.0036 O.2     
  15 C15            3.5871    -2.1316    -0.0427 C.3     
  16 C16            3.4445    -2.6248    -1.4595 C.ar    
  17 N17            2.2443    -2.7297    -1.9951 N.ar    
  18 C18            2.0710    -3.1560    -3.2310 C.ar    
  19 C19            3.1535    -3.5108    -4.0148 C.ar    
  20 C20            4.4322    -3.4134    -3.4850 C.ar    
  21 C21            4.5741    -2.9563    -2.1842 C.ar    
  22 Br22           2.8945    -4.1214    -5.7857 Br      
  23 F23            1.2003    -2.0429    -0.0575 F       
  24 H24           -0.9608     1.9082    -0.0553 H       
  25 H25           -0.9292    -0.5507    -0.0630 H       
  26 H26            1.1454     3.1745    -0.0316 H       
  27 H27            5.6925    -0.6328    -0.0195 H       
  28 H28            7.1887     3.7117     0.0164 H       
  29 H29            4.5175    -2.5090     0.3815 H       
  30 H30            2.7459    -2.4875     0.5522 H       
  31 H31            1.0722    -3.2291    -3.6354 H       
  32 H32            5.2966    -3.6838    -4.0734 H       
  33 H33            5.5544    -2.8675    -1.7397 H       
@<TRIPOS>BOND
   1    1    2 ar
   2    1    6 ar
   3    1   24 1
   4    2    3 ar
   5    2   25 1
   6    3    4 ar
   7    3   23 1
   8    4    5 ar
   9    4    7 1
  10    5    6 ar
  11    5   10 1
  12    6   26 1
  13    7    8 1
  14    7   15 1
  15    8    9 2
  16    8   27 1
  17    9   10 1
  18    9   12 1
  19   10   11 2
  20   12   13 1
  21   12   14 2
  22   13   28 1
  23   15   16 1
  24   15   29 1
  25   15   30 1
  26   16   17 ar
  27   16   21 ar
  28   17   18 ar
  29   18   19 ar
  30   18   31 1
  31   19   20 ar
  32   19   22 1
  33   20   21 ar
  34   20   32 1
  35   21   33 1

#	End of record

