#	Name: ASD02300001
#	Creating user name:	WinNT
#	Creation time:	15. 06. 2019 20:20

#	Modifying user name:	WinNT
#	Modification time:	15. 06. 2019 20:20

#	Program:	/corina/corina34_cracker 3.40 0067  02.08.2006

@<TRIPOS>MOLECULE
ASD02300001
  36   39    0    0    0
SMALL
NO_CHARGES


@<TRIPOS>ATOM
   1 C1            -0.0168     1.3888     0.0097 C.ar    
   2 C2             0.0021    -0.0041     0.0020 C.ar    
   3 C3             1.1787    -0.6887    -0.0128 C.ar    
   4 C4             2.3938     0.0171    -0.0202 C.ar    
   5 C5             2.3735     1.4337    -0.0124 C.ar    
   6 C6             1.1414     2.1052     0.0025 C.ar    
   7 C7             3.6277    -0.6557    -0.0349 C.ar    
   8 C8             4.7890     0.0536    -0.0398 C.ar    
   9 C9             4.7833     1.4468    -0.0306 C.ar    
  10 C10            3.5938     2.1422    -0.0181 C.ar    
  11 C11            6.0891     2.2009    -0.0340 C.3     
  12 C12            5.9312     3.4938    -0.8347 C.3     
  13 C13            4.6912     4.2212    -0.3878 C.2     
  14 N14            3.5960     3.5367    -0.0105 N.am    
  15 C15            6.4809     2.5326     1.3829 C.ar    
  16 C16            7.6729     2.0597     1.8990 C.ar    
  17 C17            8.0323     2.3639     3.1987 C.ar    
  18 C18            7.2000     3.1413     3.9821 C.ar    
  19 C19            6.0084     3.6149     3.4656 C.ar    
  20 C20            5.6510     3.3143     2.1645 C.ar    
  21 O21            4.6793     5.4339    -0.3680 O.2     
  22 H22           -0.9637     1.9082     0.0170 H       
  23 H23           -0.9304    -0.5488     0.0082 H       
  24 H24            1.1783    -1.7687    -0.0183 H       
  25 H25            1.1118     3.1848     0.0073 H       
  26 H26            3.6542    -1.7354    -0.0420 H       
  27 H27            5.7320    -0.4728    -0.0507 H       
  28 H28            6.8635     1.5839    -0.4897 H       
  29 H29            6.8021     4.1290    -0.6729 H       
  30 H30            5.8494     3.2557    -1.8952 H       
  31 H31            2.8014     4.0172     0.2698 H       
  32 H32            8.3232     1.4524     1.2870 H       
  33 H33            8.9633     1.9939     3.6022 H       
  34 H34            7.4804     3.3784     4.9977 H       
  35 H35            5.3579     4.2220     4.0778 H       
  36 H36            4.7201     3.6843     1.7610 H       
@<TRIPOS>BOND
   1    1    2 ar
   2    1    6 ar
   3    1   22 1
   4    2    3 ar
   5    2   23 1
   6    3    4 ar
   7    3   24 1
   8    4    5 ar
   9    4    7 ar
  10    5    6 ar
  11    5   10 ar
  12    6   25 1
  13    7    8 ar
  14    7   26 1
  15    8    9 ar
  16    8   27 1
  17    9   10 ar
  18    9   11 1
  19   10   14 1
  20   11   12 1
  21   11   15 1
  22   11   28 1
  23   12   13 1
  24   12   29 1
  25   12   30 1
  26   13   14 am
  27   13   21 2
  28   14   31 1
  29   15   16 ar
  30   15   20 ar
  31   16   17 ar
  32   16   32 1
  33   17   18 ar
  34   17   33 1
  35   18   19 ar
  36   18   34 1
  37   19   20 ar
  38   19   35 1
  39   20   36 1

#	End of record

