#	Name: ASD03430740
#	Creating user name:	WinNT
#	Creation time:	15. 06. 2019 20:41

#	Modifying user name:	WinNT
#	Modification time:	15. 06. 2019 20:41

#	Program:	/corina/corina34_cracker 3.40 0067  02.08.2006

@<TRIPOS>MOLECULE
ASD03430740
  53   58    0    0    0
SMALL
NO_CHARGES


@<TRIPOS>ATOM
   1 C1             2.6620     0.3822    -0.0041 C.ar    
   2 C2             2.0947    -0.8774    -0.0421 C.ar    
   3 C3             2.8833    -1.9869    -0.2602 C.ar    
   4 C4             4.2588    -1.8566    -0.4333 C.ar    
   5 C5             4.8250    -0.5863    -0.3993 C.ar    
   6 C6             4.0303     0.5268    -0.1861 C.ar    
   7 O7             4.8522    -3.0714    -0.6052 O.3     
   8 C8             2.5735    -3.4550    -0.3803 C.3     
   9 C9             3.8554    -4.0366    -0.9923 C.3     
  10 C10            0.9798    -4.6339     0.7990 C.ar    
  11 C11            2.2506    -4.0819     0.9433 C.ar    
  12 C12            1.3746    -3.7141    -1.2468 C.2     
  13 N13            0.4961    -4.4021    -0.4907 N.am    
  14 O14            1.2258    -3.3712    -2.4006 O.2     
  15 C15            2.9285    -4.1873     2.1368 C.ar    
  16 C16            2.3493    -4.8460     3.2072 C.ar    
  17 C17            1.0885    -5.3978     3.0752 C.ar    
  18 C18            0.4050    -5.2949     1.8812 C.ar    
  19 C19           -0.8136    -4.8545    -0.9664 C.3     
  20 O20            4.5912     1.7642    -0.1549 O.3     
  21 C21           -1.8986    -4.1860    -0.1619 C.ar    
  22 C22           -3.0431    -4.8861     0.1709 C.ar    
  23 C23           -4.0384    -4.2729     0.9087 C.ar    
  24 C24           -3.8888    -2.9598     1.3142 C.ar    
  25 C25           -2.7438    -2.2601     0.9822 C.ar    
  26 C26           -1.7467    -2.8746     0.2480 C.ar    
  27 C27           -0.9719    -4.4935    -2.4209 C.ar    
  28 C28           -0.9338    -5.4819    -3.3865 C.ar    
  29 C29           -1.0790    -5.1508    -4.7207 C.ar    
  30 C30           -1.2627    -3.8312    -5.0893 C.ar    
  31 C31           -1.3017    -2.8428    -4.1236 C.ar    
  32 C32           -1.1609    -3.1745    -2.7891 C.ar    
  33 H33            2.0424     1.2511     0.1621 H       
  34 H34            1.0303    -0.9929     0.0998 H       
  35 H35            5.8893    -0.4681    -0.5394 H       
  36 H36            3.7741    -4.0950    -2.0777 H       
  37 H37            4.0782    -5.0150    -0.5666 H       
  38 H38            3.9134    -3.7559     2.2377 H       
  39 H39            2.8812    -4.9291     4.1435 H       
  40 H40            0.6367    -5.9121     3.9105 H       
  41 H41           -0.5794    -5.7287     1.7856 H       
  42 H42           -0.8888    -5.9356    -0.8501 H       
  43 H43            4.8777     2.0441     0.7252 H       
  44 H44           -3.1600    -5.9119    -0.1459 H       
  45 H45           -4.9329    -4.8196     1.1682 H       
  46 H46           -4.6667    -2.4806     1.8901 H       
  47 H47           -2.6271    -1.2341     1.2986 H       
  48 H48           -0.8521    -2.3279    -0.0114 H       
  49 H49           -0.7902    -6.5129    -3.0985 H       
  50 H50           -1.0485    -5.9230    -5.4752 H       
  51 H51           -1.3754    -3.5724    -6.1318 H       
  52 H52           -1.4450    -1.8118    -4.4116 H       
  53 H53           -1.1914    -2.4023    -2.0346 H       
@<TRIPOS>BOND
   1    1    2 ar
   2    1    6 ar
   3    1   33 1
   4    2    3 ar
   5    2   34 1
   6    3    4 ar
   7    3    8 1
   8    4    5 ar
   9    4    7 1
  10    5    6 ar
  11    5   35 1
  12    6   20 1
  13    7    9 1
  14    8    9 1
  15    8   11 1
  16    8   12 1
  17    9   36 1
  18    9   37 1
  19   10   11 ar
  20   10   13 1
  21   10   18 ar
  22   11   15 ar
  23   12   13 am
  24   12   14 2
  25   13   19 1
  26   15   16 ar
  27   15   38 1
  28   16   17 ar
  29   16   39 1
  30   17   18 ar
  31   17   40 1
  32   18   41 1
  33   19   21 1
  34   19   27 1
  35   19   42 1
  36   20   43 1
  37   21   22 ar
  38   21   26 ar
  39   22   23 ar
  40   22   44 1
  41   23   24 ar
  42   23   45 1
  43   24   25 ar
  44   24   46 1
  45   25   26 ar
  46   25   47 1
  47   26   48 1
  48   27   28 ar
  49   27   32 ar
  50   28   29 ar
  51   28   49 1
  52   29   30 ar
  53   29   50 1
  54   30   31 ar
  55   30   51 1
  56   31   32 ar
  57   31   52 1
  58   32   53 1

#	End of record

