#	Name: ASD01820219
#	Creating user name:	WinNT
#	Creation time:	15. 06. 2019 19:36

#	Modifying user name:	WinNT
#	Modification time:	15. 06. 2019 19:36

#	Program:	/corina/corina34_cracker 3.40 0067  02.08.2006

@<TRIPOS>MOLECULE
ASD01820219
  44   43    0    0    0
SMALL
NO_CHARGES


@<TRIPOS>ATOM
   1 N1            -0.0178     1.4648     0.0101 N.4     
   2 C2             0.0021    -0.0041     0.0020 C.3     
   3 C3             0.7421    -0.5109     1.2415 C.3     
   4 C4             0.7628    -2.0407     1.2331 C.3     
   5 C5             1.5028    -2.5476     2.4727 C.3     
   6 C6             1.5236    -4.0774     2.4642 C.3     
   7 C7             2.2636    -4.5842     3.7038 C.3     
   8 N8             2.2835    -6.0531     3.6957 N.4     
   9 C9             1.3603     1.9732    -0.0003 C.3     
  10 C10           -0.7283     1.9514    -1.1800 C.3     
  11 C11           -0.7054     1.9385     1.2187 C.3     
  12 C12            2.9711    -6.5268     2.4871 C.3     
  13 C13            2.9940    -6.5397     4.8858 C.3     
  14 C14            0.9053    -6.5616     3.7061 C.3     
  15 H15           -1.0205    -0.3814     0.0098 H       
  16 H16            0.5123    -0.3556    -0.8948 H       
  17 H17            1.7647    -0.1336     1.2338 H       
  18 H18            0.2319    -0.1594     2.1383 H       
  19 H19           -0.2598    -2.4180     1.2409 H       
  20 H20            1.2730    -2.3923     0.3363 H       
  21 H21            2.5254    -2.1703     2.4649 H       
  22 H22            0.9926    -2.1961     3.3694 H       
  23 H23            0.5010    -4.4547     2.4720 H       
  24 H24            2.0338    -4.4289     1.5674 H       
  25 H25            3.2862    -4.2070     3.6960 H       
  26 H26            1.7534    -4.2327     4.6006 H       
  27 H27            1.8705     1.6217    -0.8971 H       
  28 H28            1.3455     3.0631     0.0057 H       
  29 H29            1.8875     1.6122     0.8827 H       
  30 H30           -1.7509     1.5741    -1.1723 H       
  31 H31           -0.7431     3.0413    -1.1740 H       
  32 H32           -0.2181     1.5999    -2.0768 H       
  33 H33           -0.1782     1.5774     2.1018 H       
  34 H34           -0.7202     3.0284     1.2247 H       
  35 H35           -1.7280     1.5612     1.2264 H       
  36 H36            3.9937    -6.1496     2.4793 H       
  37 H37            2.9858    -7.6167     2.4811 H       
  38 H38            2.4439    -6.1658     1.6040 H       
  39 H39            2.4838    -6.1882     5.7826 H       
  40 H40            3.0088    -7.6296     4.8798 H       
  41 H41            4.0166    -6.1624     4.8781 H       
  42 H42            0.3781    -6.2005     2.8231 H       
  43 H43            0.9201    -7.6514     3.7001 H       
  44 H44            0.3951    -6.2100     4.6029 H       
@<TRIPOS>BOND
   1    1    2 1
   2    1    9 1
   3    1   10 1
   4    1   11 1
   5    2    3 1
   6    2   15 1
   7    2   16 1
   8    3    4 1
   9    3   17 1
  10    3   18 1
  11    4    5 1
  12    4   19 1
  13    4   20 1
  14    5    6 1
  15    5   21 1
  16    5   22 1
  17    6    7 1
  18    6   23 1
  19    6   24 1
  20    7    8 1
  21    7   25 1
  22    7   26 1
  23    8   12 1
  24    8   13 1
  25    8   14 1
  26    9   27 1
  27    9   28 1
  28    9   29 1
  29   10   30 1
  30   10   31 1
  31   10   32 1
  32   11   33 1
  33   11   34 1
  34   11   35 1
  35   12   36 1
  36   12   37 1
  37   12   38 1
  38   13   39 1
  39   13   40 1
  40   13   41 1
  41   14   42 1
  42   14   43 1
  43   14   44 1

#	End of record

