#	Name: ASD09116331
#	Creating user name:	WinNT
#	Creation time:	15. 06. 2019 21:21

#	Modifying user name:	WinNT
#	Modification time:	15. 06. 2019 21:21

#	Program:	/corina/corina34_cracker 3.40 0067  02.08.2006

@<TRIPOS>MOLECULE
ASD09116331
  74   80    0    0    0
SMALL
NO_CHARGES


@<TRIPOS>ATOM
   1 N1            -0.1422     1.7882    -0.2608 N.2     
   2 N2            -0.1882     0.4504    -0.6850 N.pl3   
   3 C3             1.1202     2.1439    -0.2525 C.2     
   4 N4             1.8682     1.1066    -0.6469 N.2     
   5 C5             1.0931     0.0768    -0.9116 C.2     
   6 N6             1.5128    -1.1665    -1.3449 N.pl3   
   7 C7            -1.3294    -0.3383    -0.8419 C.ar    
   8 N8             1.6050     3.4009     0.1087 N.pl3   
   9 C9             2.9854     3.6247     0.1808 C.ar    
  10 C10            3.4992     4.8870    -0.0881 C.ar    
  11 C11            3.8397     2.5864     0.5265 C.ar    
  12 C12            5.2018     2.8064     0.5983 C.ar    
  13 C13            5.7172     4.0652     0.3245 C.ar    
  14 C14            4.8617     5.1074    -0.0168 C.ar    
  15 N15            7.0988     4.2881     0.3980 N.3     
  16 C16            7.4164     5.7035     0.1697 C.3     
  17 C17            7.8221     3.4231    -0.5428 C.3     
  18 C18            9.3291     3.5874    -0.3335 C.3     
  19 C19            9.7141     5.0522    -0.5585 C.3     
  20 C20            8.9113     5.9358     0.4004 C.3     
  21 N21           11.1499     5.2275    -0.3019 N.3     
  22 F22            5.3628     6.3333    -0.2839 F       
  23 C23           11.9563     4.4340    -1.2473 C.3     
  24 C24           12.9060     5.4117    -1.9709 C.3     
  25 C25           12.9823     6.6132    -0.9924 C.3     
  26 C26           11.5408     6.6479    -0.4263 C.3     
  27 N27           -1.3161    -1.3631    -1.6811 N.ar    
  28 N28           -2.3423    -2.1140    -1.8698 N.ar    
  29 C29           -3.4824    -1.9039    -1.2315 C.ar    
  30 C30           -3.5833    -0.8579    -0.3099 C.ar    
  31 C31           -2.4839    -0.0501    -0.1096 C.ar    
  32 C32           -4.6825    -2.7340    -1.4871 C.ar    
  33 C33           -5.8996    -2.0997    -1.7419 C.ar    
  34 C34           -5.9496    -0.5977    -1.8056 C.3     
  35 C35           -5.9143     0.0204    -0.4106 C.3     
  36 C36           -4.8589    -0.6610     0.4564 C.3     
  37 C37           -4.6109    -4.1222    -1.4717 C.ar    
  38 C38           -5.7548    -4.8691    -1.6914 C.ar    
  39 C39           -6.9644    -4.2346    -1.9224 C.ar    
  40 C40           -7.0357    -2.8529    -1.9473 C.ar    
  41 F41           -5.6921    -6.2186    -1.6803 F       
  42 H42            2.4577    -1.3395    -1.4800 H       
  43 H43            0.8626    -1.8662    -1.5140 H       
  44 H44            0.9859     4.1200     0.3099 H       
  45 H45            2.8342     5.6957    -0.3531 H       
  46 H46            3.4393     1.6063     0.7397 H       
  47 H47            5.8657     1.9983     0.8680 H       
  48 H48            7.1610     5.9723    -0.8553 H       
  49 H49            6.8421     6.3206     0.8607 H       
  50 H50            7.5424     2.3840    -0.3694 H       
  51 H51            7.5647     3.7026    -1.5645 H       
  52 H52            9.5892     3.2949     0.6839 H       
  53 H53            9.8659     2.9570    -1.0424 H       
  54 H54            9.4900     5.3339    -1.5873 H       
  55 H55            9.1496     6.9833     0.2157 H       
  56 H56            9.1648     5.6803     1.4292 H       
  57 H57           12.5360     3.6874    -0.7045 H       
  58 H58           11.3045     3.9457    -1.9718 H       
  59 H59           13.8899     4.9630    -2.1077 H       
  60 H60           12.4854     5.7202    -2.9279 H       
  61 H61           13.7082     6.4267    -0.2009 H       
  62 H62           13.2152     7.5357    -1.5243 H       
  63 H63           10.8746     7.1658    -1.1162 H       
  64 H64           11.5281     7.1319     0.5502 H       
  65 H65           -2.5167     0.7795     0.5811 H       
  66 H66           -5.0948    -0.2364    -2.3774 H       
  67 H67           -6.8676    -0.2925    -2.3077 H       
  68 H68           -5.6795     1.0815    -0.4941 H       
  69 H69           -6.8919    -0.0944     0.0576 H       
  70 H70           -5.2346    -1.6309     0.7824 H       
  71 H71           -4.6596    -0.0421     1.3312 H       
  72 H72           -3.6673    -4.6151    -1.2896 H       
  73 H73           -7.8565    -4.8215    -2.0843 H       
  74 H74           -7.9820    -2.3644    -2.1270 H       
@<TRIPOS>BOND
   1    1    2 1
   2    1    3 2
   3    2    7 1
   4    2    5 1
   5    3    4 1
   6    3    8 1
   7    4    5 2
   8    5    6 1
   9    6   42 1
  10    6   43 1
  11    7   27 ar
  12    7   31 ar
  13    8    9 1
  14    8   44 1
  15    9   10 ar
  16    9   11 ar
  17   10   14 ar
  18   10   45 1
  19   11   12 ar
  20   11   46 1
  21   12   13 ar
  22   12   47 1
  23   13   14 ar
  24   13   15 1
  25   14   22 1
  26   15   17 1
  27   15   16 1
  28   16   20 1
  29   16   48 1
  30   16   49 1
  31   17   18 1
  32   17   50 1
  33   17   51 1
  34   18   19 1
  35   18   52 1
  36   18   53 1
  37   19   20 1
  38   19   21 1
  39   19   54 1
  40   20   55 1
  41   20   56 1
  42   21   23 1
  43   21   26 1
  44   23   24 1
  45   23   57 1
  46   23   58 1
  47   24   25 1
  48   24   59 1
  49   24   60 1
  50   25   26 1
  51   25   61 1
  52   25   62 1
  53   26   63 1
  54   26   64 1
  55   27   28 ar
  56   28   29 ar
  57   29   30 ar
  58   29   32 1
  59   30   31 ar
  60   30   36 1
  61   31   65 1
  62   32   33 ar
  63   32   37 ar
  64   33   34 1
  65   33   40 ar
  66   34   35 1
  67   34   66 1
  68   34   67 1
  69   35   36 1
  70   35   68 1
  71   35   69 1
  72   36   70 1
  73   36   71 1
  74   37   38 ar
  75   37   72 1
  76   38   39 ar
  77   38   41 1
  78   39   40 ar
  79   39   73 1
  80   40   74 1

#	End of record

