#	Name: ASD04880314
#	Creating user name:	WinNT
#	Creation time:	15. 06. 2019 20:53

#	Modifying user name:	WinNT
#	Modification time:	15. 06. 2019 20:53

#	Program:	/corina/corina34_cracker 3.40 0067  02.08.2006

@<TRIPOS>MOLECULE
ASD04880314
  52   55    0    0    0
SMALL
NO_CHARGES


@<TRIPOS>ATOM
   1 C1            -0.0143     1.3869     0.0488 C.ar    
   2 C2             0.0041    -0.0060     0.0329 C.ar    
   3 C3            -1.1838    -0.7131     0.0351 C.ar    
   4 C4            -2.4010    -0.0274     0.0539 C.ar    
   5 C5            -2.4117     1.3695     0.0703 C.ar    
   6 C6            -1.2226     2.0679     0.0733 C.ar    
   7 C7            -3.6711    -0.7763     0.0559 C.2     
   8 O8             1.1550     2.0804     0.0461 O.3     
   9 C9             1.0635     3.5064     0.0631 C.3     
  10 O10            1.1907    -0.6701     0.0146 O.3     
  11 C11            1.1347    -2.0980    -0.0011 C.3     
  12 N12           -3.7770    -2.0599     0.0419 N.2     
  13 N13           -5.0912    -2.5229     0.0481 N.am    
  14 C14           -6.0025    -1.3677     0.0696 C.3     
  15 C15           -5.0497    -0.1559     0.0814 C.3     
  16 C16           -6.8839    -1.3537    -1.1809 C.3     
  17 C17           -6.8617    -1.3831     1.3355 C.3     
  18 C18           -5.4665    -3.8173     0.0363 C.2     
  19 N19           -4.5331    -4.7894     0.0172 N.am    
  20 O20           -6.6473    -4.1082     0.0429 O.2     
  21 C21           -4.9184    -6.1327     0.1189 C.ar    
  22 C22           -4.2147    -7.1106    -0.5702 C.ar    
  23 C23           -4.5938    -8.4361    -0.4713 C.ar    
  24 C24           -5.6764    -8.7924     0.3158 C.ar    
  25 C25           -6.3845    -7.8131     1.0090 C.ar    
  26 C26           -6.0006    -6.4862     0.9135 C.ar    
  27 O27           -6.2435   -10.0074     0.5773 O.3     
  28 C28           -7.0473    -9.8107     1.7555 C.3     
  29 O29           -7.3941    -8.4142     1.7039 O.3     
  30 H30           -1.1709    -1.7929     0.0220 H       
  31 H31           -3.3510     1.9023     0.0849 H       
  32 H32           -1.2322     3.1478     0.0860 H       
  33 H33            0.5355     3.8259     0.9616 H       
  34 H34            2.0657     3.9349     0.0590 H       
  35 H35            0.5194     3.8461    -0.8182 H       
  36 H36            2.1474    -2.5011    -0.0148 H       
  37 H37            0.6152    -2.4510     0.8897 H       
  38 H38            0.5991    -2.4309    -0.8901 H       
  39 H39           -5.1925     0.4341     0.9867 H       
  40 H40           -5.2027     0.4595    -0.8052 H       
  41 H41           -7.4936    -2.2569    -1.2058 H       
  42 H42           -7.5325    -0.4780    -1.1586 H       
  43 H43           -6.2535    -1.3164    -2.0694 H       
  44 H44           -6.2157    -1.3664     2.2133 H       
  45 H45           -7.5104    -0.5072     1.3450 H       
  46 H46           -7.4711    -2.2867     1.3500 H       
  47 H47           -3.5946    -4.5591    -0.0670 H       
  48 H48           -3.3702    -6.8355    -1.1847 H       
  49 H49           -4.0452    -9.1953    -1.0089 H       
  50 H50           -6.5479    -5.7256     1.4504 H       
  51 H51           -7.9437   -10.4296     1.7152 H       
  52 H52           -6.4700   -10.0290     2.6539 H       
@<TRIPOS>BOND
   1    1    2 ar
   2    1    8 1
   3    1    6 ar
   4    2    3 ar
   5    2   10 1
   6    3    4 ar
   7    3   30 1
   8    4    5 ar
   9    4    7 1
  10    5    6 ar
  11    5   31 1
  12    6   32 1
  13    7   12 2
  14    7   15 1
  15    8    9 1
  16    9   33 1
  17    9   34 1
  18    9   35 1
  19   10   11 1
  20   11   36 1
  21   11   37 1
  22   11   38 1
  23   12   13 1
  24   13   14 1
  25   13   18 am
  26   14   15 1
  27   14   16 1
  28   14   17 1
  29   15   39 1
  30   15   40 1
  31   16   41 1
  32   16   42 1
  33   16   43 1
  34   17   44 1
  35   17   45 1
  36   17   46 1
  37   18   19 am
  38   18   20 2
  39   19   21 1
  40   19   47 1
  41   21   22 ar
  42   21   26 ar
  43   22   23 ar
  44   22   48 1
  45   23   24 ar
  46   23   49 1
  47   24   25 ar
  48   24   27 1
  49   25   26 ar
  50   25   29 1
  51   26   50 1
  52   27   28 1
  53   28   29 1
  54   28   51 1
  55   28   52 1

#	End of record

