#	Name: ASD01870397
#	Creating user name:	WinNT
#	Creation time:	15. 06. 2019 19:39

#	Modifying user name:	WinNT
#	Modification time:	15. 06. 2019 19:39

#	Program:	/corina/corina34_cracker 3.40 0067  02.08.2006

@<TRIPOS>MOLECULE
ASD01870397
  40   44    0    0    0
SMALL
NO_CHARGES


@<TRIPOS>ATOM
   1 C1            -0.0167     1.3793     0.0096 C.ar    
   2 C2             0.0021    -0.0041     0.0020 C.ar    
   3 C3             1.2052    -0.6838    -0.0142 C.ar    
   4 C4             2.3963     0.0181    -0.0230 C.ar    
   5 C5             2.3837     1.3986    -0.0148 C.ar    
   6 C6             1.1753     2.0854     0.0020 C.ar    
   7 O7             1.1844     3.4397     0.0103 O.3     
   8 C8             0.0933     4.1246     0.4285 C.ar    
   9 C9            -1.1567     3.5280     0.4570 C.ar    
  10 C10           -1.3379     2.0986     0.0198 C.3     
  11 C11            0.2359     5.4466     0.8339 C.ar    
  12 C12           -0.8638     6.1626     1.2623 C.ar    
  13 C13           -2.1101     5.5649     1.2887 C.ar    
  14 C14           -2.2553     4.2507     0.8869 C.ar    
  15 C15           -1.9299     2.0704    -1.3657 C.2     
  16 O16           -1.3353     1.5201    -2.2681 O.2     
  17 N17           -3.1203     2.6566    -1.6020 N.am    
  18 C18           -3.6645     2.6306    -2.8757 C.2     
  19 S19           -5.2035     3.3523    -3.3245 S.3     
  20 C20           -4.9855     2.8156    -4.9885 C.ar    
  21 C21           -3.7679     2.1333    -5.0761 C.ar    
  22 N22           -3.1122     2.0790    -3.9001 N.2     
  23 C23           -3.3816     1.6091    -6.3277 C.ar    
  24 C24           -4.1868     1.7699    -7.4270 C.ar    
  25 C25           -5.3921     2.4488    -7.3263 C.ar    
  26 C26           -5.7899     2.9691    -6.1147 C.ar    
  27 H27           -0.9269    -0.5548     0.0092 H       
  28 H28            1.2150    -1.7638    -0.0197 H       
  29 H29            3.3363    -0.5134    -0.0359 H       
  30 H30            3.3146     1.9460    -0.0215 H       
  31 H31           -2.0155     1.5961     0.7100 H       
  32 H32            1.2092     5.9143     0.8139 H       
  33 H33           -0.7505     7.1895     1.5771 H       
  34 H34           -2.9705     6.1252     1.6236 H       
  35 H35           -3.2300     3.7860     0.9086 H       
  36 H36           -3.5959     3.0967    -0.8802 H       
  37 H37           -2.4458     1.0781    -6.4213 H       
  38 H38           -3.8792     1.3643    -8.3795 H       
  39 H39           -6.0183     2.5698    -8.1978 H       
  40 H40           -6.7287     3.4976    -6.0378 H       
@<TRIPOS>BOND
   1    1    2 ar
   2    1    6 ar
   3    1   10 1
   4    2    3 ar
   5    2   27 1
   6    3    4 ar
   7    3   28 1
   8    4    5 ar
   9    4   29 1
  10    5    6 ar
  11    5   30 1
  12    6    7 1
  13    7    8 1
  14    8   11 ar
  15    8    9 ar
  16    9   10 1
  17    9   14 ar
  18   10   15 1
  19   10   31 1
  20   11   12 ar
  21   11   32 1
  22   12   13 ar
  23   12   33 1
  24   13   14 ar
  25   13   34 1
  26   14   35 1
  27   15   16 2
  28   15   17 am
  29   17   18 1
  30   17   36 1
  31   18   19 1
  32   18   22 2
  33   19   20 1
  34   20   26 ar
  35   20   21 ar
  36   21   22 1
  37   21   23 ar
  38   23   24 ar
  39   23   37 1
  40   24   25 ar
  41   24   38 1
  42   25   26 ar
  43   25   39 1
  44   26   40 1

#	End of record

