#	Name: ASD01810232
#	Creating user name:	WinNT
#	Creation time:	15. 06. 2019 19:24

#	Modifying user name:	WinNT
#	Modification time:	15. 06. 2019 19:24

#	Program:	/corina/corina34_cracker 3.40 0067  02.08.2006

@<TRIPOS>MOLECULE
ASD01810232
  51   54    0    0    0
SMALL
NO_CHARGES


@<TRIPOS>ATOM
   1 C1             0.0372     1.5045    -0.1433 C.ar    
   2 C2             0.0390     0.1168    -0.1289 C.ar    
   3 C3             1.2256    -0.5857    -0.1103 C.ar    
   4 C4             2.4404     0.1001    -0.1063 C.ar    
   5 C5             2.4338     1.5045    -0.1214 C.ar    
   6 C6             1.2250     2.2011    -0.1397 C.ar    
   7 N7             3.6340    -0.5897    -0.0873 N.pl3   
   8 C8             4.8251     0.0215    -0.0823 C.2     
   9 C9             4.9462     1.3967    -0.0955 C.2     
  10 C10            3.7248     2.2176    -0.1171 C.2     
  11 O11            3.7780     3.4349    -0.1297 O.2     
  12 C12            6.2724     2.0302    -0.0880 C.2     
  13 O13            6.3775     3.3740    -0.1011 O.3     
  14 O14            7.2745     1.3422    -0.0701 O.2     
  15 C15            3.5972    -2.0541    -0.0714 C.3     
  16 C16            3.4517    -2.5683    -1.4805 C.ar    
  17 N17            2.2499    -2.6661    -2.0149 N.ar    
  18 C18            2.0688    -3.1089    -3.2424 C.ar    
  19 C19            3.1552    -3.4934    -4.0249 C.ar    
  20 C20            4.4419    -3.4016    -3.4871 C.ar    
  21 C21            4.5809    -2.9249    -2.1951 C.ar    
  22 C22            2.9496    -3.9930    -5.4071 C.ar    
  23 F23            1.2117    -1.9365    -0.0955 F       
  24 C24            1.6639    -4.0810    -5.9332 C.ar    
  25 C25            1.4784    -4.5484    -7.2262 C.ar    
  26 C26            2.5749    -4.9268    -7.9914 C.ar    
  27 C27            3.8509    -4.8393    -7.4677 C.ar    
  28 C28            4.0440    -4.3698    -6.1840 C.ar    
  29 N29            0.1901    -4.6390    -7.7584 N.pl3   
  30 C30           -0.9733    -4.3648    -6.9113 C.3     
  31 C31            0.0024    -5.0083    -9.1636 C.3     
  32 H32           -0.9001     2.0406    -0.1619 H       
  33 H33           -0.8989    -0.4187    -0.1318 H       
  34 H34            1.2210     3.2810    -0.1516 H       
  35 H35            5.7211    -0.5813    -0.0671 H       
  36 H36            7.2706     3.7446    -0.0955 H       
  37 H37            4.5220    -2.4361     0.3610 H       
  38 H38            2.7504    -2.3898     0.5272 H       
  39 H39            1.0690    -3.1748    -3.6455 H       
  40 H40            5.3061    -3.6917    -4.0663 H       
  41 H41            5.5599    -2.8399    -1.7470 H       
  42 H42            0.8132    -3.7867    -5.3365 H       
  43 H43            2.4296    -5.2905    -8.9979 H       
  44 H44            4.7000    -5.1349    -8.0662 H       
  45 H45            5.0426    -4.3029    -5.7781 H       
  46 H46           -1.2217    -3.3049    -6.9673 H       
  47 H47           -1.8217    -4.9555    -7.2569 H       
  48 H48           -0.7422    -4.6298    -5.8796 H       
  49 H49            0.9735    -5.0792    -9.6535 H       
  50 H50           -0.5050    -5.9713    -9.2215 H       
  51 H51           -0.6011    -4.2491    -9.6613 H       
@<TRIPOS>BOND
   1    1    2 ar
   2    1    6 ar
   3    1   32 1
   4    2    3 ar
   5    2   33 1
   6    3    4 ar
   7    3   23 1
   8    4    5 ar
   9    4    7 1
  10    5    6 ar
  11    5   10 1
  12    6   34 1
  13    7    8 1
  14    7   15 1
  15    8    9 2
  16    8   35 1
  17    9   10 1
  18    9   12 1
  19   10   11 2
  20   12   13 1
  21   12   14 2
  22   13   36 1
  23   15   16 1
  24   15   37 1
  25   15   38 1
  26   16   17 ar
  27   16   21 ar
  28   17   18 ar
  29   18   19 ar
  30   18   39 1
  31   19   20 ar
  32   19   22 1
  33   20   21 ar
  34   20   40 1
  35   21   41 1
  36   22   24 ar
  37   22   28 ar
  38   24   25 ar
  39   24   42 1
  40   25   26 ar
  41   25   29 1
  42   26   27 ar
  43   26   43 1
  44   27   28 ar
  45   27   44 1
  46   28   45 1
  47   29   30 1
  48   29   31 1
  49   30   46 1
  50   30   47 1
  51   30   48 1
  52   31   49 1
  53   31   50 1
  54   31   51 1

#	End of record

