#	Name: ASD07330004
#	Creating user name:	WinNT
#	Creation time:	15. 06. 2019 21:11

#	Modifying user name:	WinNT
#	Modification time:	15. 06. 2019 21:11

#	Program:	/corina/corina34_cracker 3.40 0067  02.08.2006

@<TRIPOS>MOLECULE
ASD07330004
  72   76    0    0    0
SMALL
NO_CHARGES


@<TRIPOS>ATOM
   1 C1             3.7195     0.1960     5.0051 C.ar    
   2 C2             4.4593    -0.6485     5.8195 C.ar    
   3 N3             5.1836    -1.6294     5.3236 N.ar    
   4 C4             5.2397    -1.8574     4.0152 C.ar    
   5 C5             4.5097    -1.0348     3.1272 C.ar    
   6 C6             3.7368     0.0100     3.6340 C.ar    
   7 N7             5.9857    -2.8670     3.5034 N.2     
   8 C8             6.0438    -3.0933     2.2256 C.2     
   9 N9             5.3755    -2.3534     1.3026 N.am    
  10 C10            4.5958    -1.3159     1.6882 C.2     
  11 O11            3.9899    -0.6430     0.8747 O.2     
  12 C12            5.4944    -2.6662    -0.0587 C.ar    
  13 C13            4.4611    -3.3235    -0.7132 C.ar    
  14 C14            4.5786    -3.6308    -2.0541 C.ar    
  15 C15            5.7289    -3.2831    -2.7476 C.ar    
  16 C16            6.7617    -2.6263    -2.0941 C.ar    
  17 C17            6.6432    -2.3138    -0.7546 C.ar    
  18 C18            6.8981    -4.2365     1.7413 C.3     
  19 C19            7.8379    -4.6819     2.8635 C.3     
  20 N20            6.0388    -5.3568     1.3505 N.am    
  21 C21            5.0919    -5.9244     2.3136 C.3     
  22 C22            6.1193    -5.8653     0.1049 C.2     
  23 C23            3.7374    -5.2934     2.1179 C.ar    
  24 C24            5.1577    -6.9393    -0.3341 C.3     
  25 O25            6.9658    -5.4585    -0.6625 O.2     
  26 C26            5.5980    -7.4947    -1.6641 C.ar    
  27 C27            6.5538    -8.4926    -1.7129 C.ar    
  28 C28            6.9592    -9.0034    -2.9308 C.ar    
  29 C29            6.4063    -8.5143    -4.1054 C.ar    
  30 C30            5.4475    -7.5130    -4.0537 C.ar    
  31 C31            5.0415    -7.0095    -2.8330 C.ar    
  32 C32            2.7700    -5.9297     1.3549 C.ar    
  33 C33            1.5384    -5.3120     1.2021 C.ar    
  34 C34            1.3172    -4.0910     1.8110 C.ar    
  35 N35            2.2607    -3.5149     2.5297 N.ar    
  36 C36            3.4418    -4.0761     2.7012 C.ar    
  37 O37            5.8442    -3.5864    -4.0677 O.3     
  38 C38            6.9943    -3.5953    -6.1932 C.3     
  39 C39            6.9985    -3.0907    -4.7488 C.3     
  40 O40            6.8038    -9.0148    -5.3047 O.3     
  41 C41            6.1103    -8.5489    -6.4641 C.3     
  42 F42            6.3218    -7.1740    -6.6128 F       
  43 F43            6.5891    -9.2194    -7.5947 F       
  44 F44            4.7411    -8.7972    -6.3197 F       
  45 H45            3.1304     0.9907     5.4385 H       
  46 H46            4.4408    -0.4971     6.8887 H       
  47 H47            3.1694     0.6527     2.9772 H       
  48 H48            3.5658    -3.5945    -0.1734 H       
  49 H49            3.7751    -4.1424    -2.5631 H       
  50 H50            7.6570    -2.3562    -2.6344 H       
  51 H51            7.4470    -1.8022    -0.2461 H       
  52 H52            7.4857    -3.9125     0.8824 H       
  53 H53            7.2518    -5.0820     3.6909 H       
  54 H54            8.5112    -5.4529     2.4889 H       
  55 H55            8.4201    -3.8281     3.2101 H       
  56 H56            5.0171    -7.0007     2.1584 H       
  57 H57            5.4418    -5.7268     3.3268 H       
  58 H58            5.1430    -7.7388     0.4066 H       
  59 H59            4.1584    -6.5149    -0.4305 H       
  60 H60            6.9841    -8.8728    -0.7982 H       
  61 H61            7.7060    -9.7827    -2.9684 H       
  62 H62            5.0157    -7.1306    -4.9668 H       
  63 H63            4.2950    -6.2300    -2.7922 H       
  64 H64            2.9714    -6.8837     0.8904 H       
  65 H65            0.7617    -5.7787     0.6144 H       
  66 H66            0.3605    -3.6030     1.6966 H       
  67 H67            4.1898    -3.5741     3.2970 H       
  68 H68            7.9022    -3.2633    -6.6967 H       
  69 H69            6.9540    -4.6845    -6.1975 H       
  70 H70            6.1236    -3.1974    -6.7145 H       
  71 H71            6.9828    -2.0009    -4.7446 H       
  72 H72            7.8978    -3.4431    -4.2435 H       
@<TRIPOS>BOND
   1    1    2 ar
   2    1    6 ar
   3    1   45 1
   4    2    3 ar
   5    2   46 1
   6    3    4 ar
   7    4    5 ar
   8    4    7 1
   9    5    6 ar
  10    5   10 1
  11    6   47 1
  12    7    8 2
  13    8    9 1
  14    8   18 1
  15    9   10 am
  16    9   12 1
  17   10   11 2
  18   12   13 ar
  19   12   17 ar
  20   13   14 ar
  21   13   48 1
  22   14   15 ar
  23   14   49 1
  24   15   16 ar
  25   15   37 1
  26   16   17 ar
  27   16   50 1
  28   17   51 1
  29   18   19 1
  30   18   20 1
  31   18   52 1
  32   19   53 1
  33   19   54 1
  34   19   55 1
  35   20   21 1
  36   20   22 am
  37   21   23 1
  38   21   56 1
  39   21   57 1
  40   22   24 1
  41   22   25 2
  42   23   32 ar
  43   23   36 ar
  44   24   26 1
  45   24   58 1
  46   24   59 1
  47   26   27 ar
  48   26   31 ar
  49   27   28 ar
  50   27   60 1
  51   28   29 ar
  52   28   61 1
  53   29   30 ar
  54   29   40 1
  55   30   31 ar
  56   30   62 1
  57   31   63 1
  58   32   33 ar
  59   32   64 1
  60   33   34 ar
  61   33   65 1
  62   34   35 ar
  63   34   66 1
  64   35   36 ar
  65   36   67 1
  66   37   39 1
  67   38   39 1
  68   38   68 1
  69   38   69 1
  70   38   70 1
  71   39   71 1
  72   39   72 1
  73   40   41 1
  74   41   42 1
  75   41   43 1
  76   41   44 1

#	End of record

