#	Name: ASD02508273
#	Creating user name:	WinNT
#	Creation time:	15. 06. 2019 20:24

#	Modifying user name:	WinNT
#	Modification time:	15. 06. 2019 20:24

#	Program:	/corina/corina34_cracker 3.40 0067  02.08.2006

@<TRIPOS>MOLECULE
ASD02508273
  39   41    0    0    0
SMALL
NO_CHARGES


@<TRIPOS>ATOM
   1 C1            -0.0710     1.3039     0.3833 C.ar    
   2 C2            -0.0631    -0.0708     0.1480 C.ar    
   3 C3            -1.2589    -0.7657     0.0560 C.ar    
   4 C4            -2.4570    -0.0932     0.1978 C.ar    
   5 C5            -2.4659     1.2711     0.4309 C.ar    
   6 C6            -1.2782     1.9693     0.5293 C.ar    
   7 S7            -3.9783    -0.9744     0.0812 S.o2    
   8 N8            -4.7832    -0.3898    -1.2426 N.am    
   9 C9            -4.2728    -0.6102    -2.5239 C.ar    
  10 O10            1.2208     1.7127     0.4243 O.3     
  11 C11            2.0243     0.6560     0.2255 C.2     
  12 N12            1.2753    -0.4511     0.0530 N.am    
  13 O13           -3.6397    -2.3217    -0.2177 O.2     
  14 O14           -4.7471    -0.5997     1.2160 O.2     
  15 O15            3.2395     0.6920     0.2044 O.2     
  16 C16            1.7756    -1.8064    -0.1905 C.3     
  17 C17           -5.1137    -1.0360    -3.5441 C.ar    
  18 C18           -3.7775     1.9973     0.5835 C.3     
  19 C19           -2.9244    -0.3986    -2.7816 C.ar    
  20 C20           -2.4215    -0.6167    -4.0496 C.ar    
  21 C21           -3.2583    -1.0450    -5.0630 C.ar    
  22 C22           -4.6048    -1.2528    -4.8116 C.ar    
  23 F23           -5.4203    -1.6714    -5.8041 F       
  24 C24           -2.7060    -1.2814    -6.4450 C.3     
  25 H25           -1.2538    -1.8302    -0.1266 H       
  26 H26           -1.2902     3.0337     0.7116 H       
  27 H27           -5.6092     0.1058    -1.1283 H       
  28 H28            2.8653    -1.7927    -0.2134 H       
  29 H29            1.4372    -2.4674     0.6074 H       
  30 H30            1.3966    -2.1673    -1.1466 H       
  31 H31           -6.1633    -1.1978    -3.3477 H       
  32 H32           -4.1201     1.9158     1.6150 H       
  33 H33           -3.6429     3.0482     0.3274 H       
  34 H34           -4.5182     1.5533    -0.0815 H       
  35 H35           -2.2694    -0.0633    -1.9910 H       
  36 H36           -1.3730    -0.4521    -4.2495 H       
  37 H37           -2.3722    -2.3155    -6.5310 H       
  38 H38           -3.4828    -1.0877    -7.1848 H       
  39 H39           -1.8635    -0.6120    -6.6190 H       
@<TRIPOS>BOND
   1    1    2 ar
   2    1   10 1
   3    1    6 ar
   4    2    3 ar
   5    2   12 1
   6    3    4 ar
   7    3   25 1
   8    4    5 ar
   9    4    7 1
  10    5    6 ar
  11    5   18 1
  12    6   26 1
  13    7    8 am
  14    7   13 2
  15    7   14 2
  16    8    9 1
  17    8   27 1
  18    9   17 ar
  19    9   19 ar
  20   10   11 1
  21   11   12 am
  22   11   15 2
  23   12   16 1
  24   16   28 1
  25   16   29 1
  26   16   30 1
  27   17   22 ar
  28   17   31 1
  29   18   32 1
  30   18   33 1
  31   18   34 1
  32   19   20 ar
  33   19   35 1
  34   20   21 ar
  35   20   36 1
  36   21   22 ar
  37   21   24 1
  38   22   23 1
  39   24   37 1
  40   24   38 1
  41   24   39 1

#	End of record

