#	Name: ASD07930612
#	Creating user name:	WinNT
#	Creation time:	15. 06. 2019 21:12

#	Modifying user name:	WinNT
#	Modification time:	15. 06. 2019 21:12

#	Program:	/corina/corina34_cracker 3.40 0067  02.08.2006

@<TRIPOS>MOLECULE
ASD07930612
  51   53    0    0    0
SMALL
NO_CHARGES


@<TRIPOS>ATOM
   1 C1             1.3695     0.7526    -1.5472 C.3     
   2 N2             2.3133    -2.0773    -1.4375 N.2     
   3 N3             0.0354    -2.5823    -1.3054 N.pl3   
   4 C4            -0.8997    -2.7428    -0.1870 C.3     
   5 C5            -1.5452    -1.3871     0.1316 C.3     
   6 S6            -0.2179    -0.1886     0.4724 S.o2    
   7 N7             0.8029    -0.3916    -0.8289 N.am    
   8 C8             1.0894    -1.6980    -1.1989 C.2     
   9 C9            -0.1435    -3.2501     1.0425 C.3     
  10 C10           -1.9705    -3.7337    -0.5646 C.ar    
  11 C11           -1.6886    -4.7476    -1.4614 C.ar    
  12 C12           -2.6781    -5.6613    -1.8088 C.ar    
  13 C13           -3.9455    -5.5524    -1.2541 C.ar    
  14 C14           -4.2222    -4.5374    -0.3583 C.ar    
  15 C15           -3.2350    -3.6319    -0.0088 C.ar    
  16 O16           -0.6967     1.1434     0.3468 O.2     
  17 O17            0.5511    -0.5938     1.5966 O.2     
  18 N18           -2.3960    -6.6892    -2.7173 N.am    
  19 C19           -3.3926    -7.2516    -3.4294 C.2     
  20 O20           -4.5199    -6.8022    -3.3571 O.2     
  21 C21           -3.1148    -8.4153    -4.2985 C.ar    
  22 N22           -1.8800    -8.9081    -4.3781 N.ar    
  23 C23           -1.6339    -9.9437    -5.1512 C.ar    
  24 C24           -2.6660   -10.5265    -5.8883 C.ar    
  25 N25           -3.8960   -10.0370    -5.8107 N.ar    
  26 C26           -4.1467    -9.0012    -5.0310 C.ar    
  27 O27           -2.4109   -11.5930    -6.6841 O.3     
  28 C28           -3.5138   -12.1394    -7.4100 C.3     
  29 C29           -3.0353   -13.3277    -8.2466 C.3     
  30 F30           -2.5014   -14.3073    -7.4026 F       
  31 F31           -4.1151   -13.8626    -8.9573 F       
  32 F32           -2.0519   -12.8997    -9.1449 F       
  33 F33           -0.4538    -4.8503    -1.9999 F       
  34 F34           -3.5086    -2.6408     0.8676 F       
  35 H35            2.3185     1.0343    -1.0909 H       
  36 H36            1.5341     0.4816    -2.5901 H       
  37 H37            0.6776     1.5932    -1.4951 H       
  38 H38            3.0422    -1.4422    -1.3575 H       
  39 H39           -0.0844    -3.0998    -2.1170 H       
  40 H40           -2.1337    -1.0508    -0.7220 H       
  41 H41           -2.1877    -1.4827     1.0069 H       
  42 H42            0.6913    -2.5827     1.2567 H       
  43 H43           -0.8174    -3.2753     1.8988 H       
  44 H44            0.2345    -4.2538     0.8481 H       
  45 H45           -4.7154    -6.2606    -1.5227 H       
  46 H46           -5.2087    -4.4528     0.0730 H       
  47 H47           -1.4834    -6.9964    -2.8341 H       
  48 H48           -0.6325   -10.3429    -5.2159 H       
  49 H49           -5.1484    -8.6026    -4.9674 H       
  50 H50           -4.2800   -12.4728    -6.7102 H       
  51 H51           -3.9298   -11.3761    -8.0677 H       
@<TRIPOS>BOND
   1    1    7 1
   2    1   35 1
   3    1   36 1
   4    1   37 1
   5    2    8 2
   6    2   38 1
   7    3    4 1
   8    3    8 1
   9    3   39 1
  10    4    5 1
  11    4    9 1
  12    4   10 1
  13    5    6 1
  14    5   40 1
  15    5   41 1
  16    6    7 am
  17    6   16 2
  18    6   17 2
  19    7    8 1
  20    9   42 1
  21    9   43 1
  22    9   44 1
  23   10   11 ar
  24   10   15 ar
  25   11   12 ar
  26   11   33 1
  27   12   13 ar
  28   12   18 1
  29   13   14 ar
  30   13   45 1
  31   14   15 ar
  32   14   46 1
  33   15   34 1
  34   18   19 am
  35   18   47 1
  36   19   20 2
  37   19   21 1
  38   21   22 ar
  39   21   26 ar
  40   22   23 ar
  41   23   24 ar
  42   23   48 1
  43   24   25 ar
  44   24   27 1
  45   25   26 ar
  46   26   49 1
  47   27   28 1
  48   28   29 1
  49   28   50 1
  50   28   51 1
  51   29   30 1
  52   29   31 1
  53   29   32 1

#	End of record

