#	Name: ASD01816071
#	Creating user name:	WinNT
#	Creation time:	15. 06. 2019 19:34

#	Modifying user name:	WinNT
#	Modification time:	15. 06. 2019 19:34

#	Program:	/corina/corina34_cracker 3.40 0067  02.08.2006

@<TRIPOS>MOLECULE
ASD01816071
  51   56    0    0    0
SMALL
NO_CHARGES


@<TRIPOS>ATOM
   1 C1            -0.0167     1.3813     0.0096 C.ar    
   2 C2             0.0021    -0.0041     0.0020 C.ar    
   3 C3             1.1984    -0.6909    -0.0127 C.ar    
   4 C4             2.4015     0.0059    -0.0200 C.ar    
   5 C5             2.3790     1.4106    -0.0127 C.ar    
   6 C6             1.1663     2.0916     0.0022 C.ar    
   7 N7             3.6053    -0.6772    -0.0338 N.pl3   
   8 C8             4.7970    -0.0586    -0.0409 C.2     
   9 C9             4.9000     1.3103    -0.0349 C.2     
  10 C10            3.6670     2.1301    -0.0207 C.2     
  11 C11            5.9971     2.2729    -0.0391 C.2     
  12 N12            5.4246     3.4960    -0.0282 N.am    
  13 N13            4.0323     3.3799    -0.0174 N.2     
  14 O14            7.1915     2.0229    -0.0495 O.2     
  15 C15            3.5779    -2.1419    -0.0404 C.3     
  16 C16            3.5560    -2.6375    -1.4634 C.ar    
  17 C17            4.7321    -2.6895    -2.1941 C.ar    
  18 C18            4.7174    -3.1432    -3.4995 C.ar    
  19 C19            3.5152    -3.5492    -4.0796 C.ar    
  20 C20            2.3346    -3.4943    -3.3367 C.ar    
  21 C21            2.3627    -3.0441    -2.0330 C.ar    
  22 F22            5.8948    -2.2957    -1.6299 F       
  23 C23            6.1265     4.7081    -0.0278 C.ar    
  24 C24            5.8865     5.6523     0.9648 C.ar    
  25 C25            7.0677     4.9677    -1.0150 C.ar    
  26 C26            7.7583     6.1639    -1.0120 C.ar    
  27 C27            7.5140     7.1037    -0.0273 C.ar    
  28 C28            6.5819     6.8478     0.9614 C.ar    
  29 F29            4.9754     5.4022     1.9305 F       
  30 C30            3.4917    -4.0352    -5.4755 C.2     
  31 C31            2.3931    -4.4514    -6.1364 C.2     
  32 C32            2.6211    -4.8604    -7.4341 C.2     
  33 C33            3.8926    -4.7820    -7.8371 C.2     
  34 S34            4.8917    -4.1528    -6.5338 S.3     
  35 H35           -0.9602     1.9068     0.0170 H       
  36 H36           -0.9289    -0.5515     0.0080 H       
  37 H37            1.2004    -1.7709    -0.0181 H       
  38 H38            1.1506     3.1715     0.0077 H       
  39 H39            5.6983    -0.6536    -0.0513 H       
  40 H40            4.4654    -2.5242     0.4639 H       
  41 H41            2.6859    -2.4910     0.4797 H       
  42 H42            5.6341    -3.1830    -4.0692 H       
  43 H43            1.4012    -3.8073    -3.7807 H       
  44 H44            1.4495    -3.0019    -1.4580 H       
  45 H45            7.2599     4.2346    -1.7845 H       
  46 H46            8.4906     6.3655    -1.7798 H       
  47 H47            8.0560     8.0378    -0.0278 H       
  48 H48            6.3934     7.5839     1.7289 H       
  49 H49            1.4118    -4.4640    -5.6854 H       
  50 H50            1.8302    -5.2180    -8.0767 H       
  51 H51            4.2520    -5.0592    -8.8171 H       
@<TRIPOS>BOND
   1    1    2 ar
   2    1    6 ar
   3    1   35 1
   4    2    3 ar
   5    2   36 1
   6    3    4 ar
   7    3   37 1
   8    4    5 ar
   9    4    7 1
  10    5    6 ar
  11    5   10 1
  12    6   38 1
  13    7    8 1
  14    7   15 1
  15    8    9 2
  16    8   39 1
  17    9   10 1
  18    9   11 1
  19   10   13 2
  20   11   12 am
  21   11   14 2
  22   12   13 1
  23   12   23 1
  24   15   16 1
  25   15   40 1
  26   15   41 1
  27   16   17 ar
  28   16   21 ar
  29   17   18 ar
  30   17   22 1
  31   18   19 ar
  32   18   42 1
  33   19   20 ar
  34   19   30 1
  35   20   21 ar
  36   20   43 1
  37   21   44 1
  38   23   24 ar
  39   23   25 ar
  40   24   29 1
  41   24   28 ar
  42   25   26 ar
  43   25   45 1
  44   26   27 ar
  45   26   46 1
  46   27   28 ar
  47   27   47 1
  48   28   48 1
  49   30   31 2
  50   30   34 1
  51   31   32 1
  52   31   49 1
  53   32   33 2
  54   32   50 1
  55   33   34 1
  56   33   51 1

#	End of record

