#	Name: ASD01885239
#	Creating user name:	WinNT
#	Creation time:	15. 06. 2019 19:49

#	Modifying user name:	WinNT
#	Modification time:	15. 06. 2019 19:49

#	Program:	/corina/corina34_cracker 3.40 0067  02.08.2006

@<TRIPOS>MOLECULE
ASD01885239
  52   55    0    0    0
SMALL
NO_CHARGES


@<TRIPOS>ATOM
   1 N1            -0.6044     1.4335     0.5709 N.ar    
   2 C2            -0.6827     0.1249     0.7184 C.ar    
   3 C3             0.4628    -0.6700     0.8461 C.ar    
   4 C4             1.7154    -0.0734     0.8172 C.ar    
   5 C5             1.7765     1.3340     0.6574 C.ar    
   6 C6             3.0035     2.0085     0.6184 C.ar    
   7 C7             3.0245     3.3622     0.4629 C.ar    
   8 C8             1.8402     4.0864     0.3425 C.ar    
   9 C9             0.6306     3.4643     0.3761 C.ar    
  10 C10            0.5682     2.0665     0.5353 C.ar    
  11 C11           -2.0173    -0.5203     0.7502 C.2     
  12 O12           -2.1070    -1.7244     0.8854 O.2     
  13 N13           -3.1311     0.2290     0.6292 N.am    
  14 C14            1.8999     5.5826     0.1728 C.3     
  15 N15            1.9626     5.9101    -1.2538 N.pl3   
  16 N16            2.8319     5.4650    -2.0923 N.2     
  17 N17            2.6053     5.9460    -3.2636 N.2     
  18 C18            1.5364     6.7481    -3.2030 C.2     
  19 C19            1.1132     6.7280    -1.9175 C.2     
  20 C20           -0.5298     7.0727    -4.5350 C.3     
  21 C21            0.9212     7.5183    -4.3429 C.3     
  22 C22            1.7113     7.2494    -5.6252 C.3     
  23 C23            3.1453     7.7553    -5.4562 C.3     
  24 O24            0.9550     8.9158    -4.0467 O.3     
  25 F25           -1.2431     7.2832    -3.3501 F       
  26 F26           -1.1126     7.8145    -5.5682 F       
  27 F27           -0.5606     5.7129    -4.8626 F       
  28 C28            2.9496    -0.8815     0.9498 C.ar    
  29 C29            3.0415    -1.8426     1.9559 C.ar    
  30 C30            4.2001    -2.5905     2.0679 C.ar    
  31 C31            5.2322    -2.3529     1.1679 C.ar    
  32 C32            5.0721    -1.3814     0.1924 C.ar    
  33 N33            3.9561    -0.6881     0.1064 N.ar    
  34 F34            6.3801    -3.0614     1.2435 F       
  35 H35            0.3722    -1.7394     0.9665 H       
  36 H36            3.9283     1.4585     0.7114 H       
  37 H37            3.9715     3.8806     0.4330 H       
  38 H38           -0.2780     4.0403     0.2817 H       
  39 H39           -3.0595     1.1903     0.5213 H       
  40 H40           -4.0042    -0.1931     0.6500 H       
  41 H41            1.0094     6.0337     0.6104 H       
  42 H42            2.7871     5.9699     0.6738 H       
  43 H43            0.2686     7.2593    -1.5043 H       
  44 H44            1.7252     6.1781    -5.8256 H       
  45 H45            1.2387     7.7689    -6.4588 H       
  46 H46            3.1283     8.8068    -5.1698 H       
  47 H47            3.6461     7.1756    -4.6807 H       
  48 H48            3.6833     7.6438    -6.3976 H       
  49 H49            1.8456     9.2679    -3.9122 H       
  50 H50            2.2198    -2.0007     2.6386 H       
  51 H51            4.3003    -3.3417     2.8373 H       
  52 H52            5.8718    -1.1933    -0.5087 H       
@<TRIPOS>BOND
   1    1    2 ar
   2    1   10 ar
   3    2    3 ar
   4    2   11 1
   5    3    4 ar
   6    3   35 1
   7    4    5 ar
   8    4   28 1
   9    5    6 ar
  10    5   10 ar
  11    6    7 ar
  12    6   36 1
  13    7    8 ar
  14    7   37 1
  15    8    9 ar
  16    8   14 1
  17    9   10 ar
  18    9   38 1
  19   11   12 2
  20   11   13 am
  21   13   39 1
  22   13   40 1
  23   14   15 1
  24   14   41 1
  25   14   42 1
  26   15   16 1
  27   15   19 1
  28   16   17 2
  29   17   18 1
  30   18   19 2
  31   18   21 1
  32   19   43 1
  33   20   21 1
  34   20   25 1
  35   20   26 1
  36   20   27 1
  37   21   22 1
  38   21   24 1
  39   22   23 1
  40   22   44 1
  41   22   45 1
  42   23   46 1
  43   23   47 1
  44   23   48 1
  45   24   49 1
  46   28   29 ar
  47   28   33 ar
  48   29   30 ar
  49   29   50 1
  50   30   31 ar
  51   30   51 1
  52   31   32 ar
  53   31   34 1
  54   32   33 ar
  55   32   52 1

#	End of record

