#	Name: ASD02500162
#	Creating user name:	WinNT
#	Creation time:	15. 06. 2019 20:22

#	Modifying user name:	WinNT
#	Modification time:	15. 06. 2019 20:22

#	Program:	/corina/corina34_cracker 3.40 0067  02.08.2006

@<TRIPOS>MOLECULE
ASD02500162
  67   70    0    0    0
SMALL
NO_CHARGES


@<TRIPOS>ATOM
   1 C1             2.4905     2.7519    -1.6340 C.2     
   2 C2             2.8141     1.3111    -1.3330 C.3     
   3 C3             1.5257     0.4859    -1.3446 C.3     
   4 O4             1.3469     3.0845    -1.8370 O.2     
   5 O5             3.4722     3.6665    -1.6711 O.3     
   6 C6             0.8539    -1.8321    -1.0092 C.2     
   7 O7            -0.3055    -1.4841    -1.1239 O.2     
   8 N8             1.8403    -0.9147    -1.0520 N.am    
   9 N9             1.1526    -3.1353    -0.8393 N.am    
  10 C10            2.5517    -3.5840    -0.8072 C.3     
  11 C11            2.7893    -4.3549     0.4973 C.3     
  12 N12            1.7218    -5.3526     0.6542 N.am    
  13 C13            0.3227    -4.9040     0.6221 C.3     
  14 C14            0.0852    -4.1323    -0.6767 C.3     
  15 C15            2.0205    -6.6558     0.8242 C.2     
  16 C16            0.9469    -7.6284     1.1031 C.ar    
  17 C17            1.0411    -8.9349     0.6147 C.ar    
  18 C18            0.0379    -9.8397     0.8766 C.ar    
  19 C19           -1.0699    -9.4553     1.6270 C.ar    
  20 C20           -1.1668    -8.1548     2.1144 C.ar    
  21 C21           -0.1640    -7.2470     1.8612 C.ar    
  22 O22            3.1749    -7.0300     0.7476 O.2     
  23 S23           -2.7032   -10.5034     3.4193 S.o2    
  24 O24           -3.0207    -9.1832     3.8382 O.2     
  25 O25           -3.6572   -11.5556     3.3757 O.2     
  26 N26           -2.0818   -10.3719     1.8899 N.am    
  27 N27           -1.2798   -13.1467     3.3158 N.ar    
  28 C28           -0.7613   -14.3375     3.1387 C.ar    
  29 C29            0.2705   -14.8152     3.9441 C.ar    
  30 C30            0.7674   -14.0355     4.9493 C.ar    
  31 C31            0.2084   -12.7571     5.1363 C.ar    
  32 C32            0.6669   -11.8996     6.1489 C.ar    
  33 C33            0.0999   -10.6705     6.2978 C.ar    
  34 C34           -0.9294   -10.2516     5.4576 C.ar    
  35 C35           -1.3988   -11.0575     4.4663 C.ar    
  36 C36           -0.8394   -12.3336     4.2813 C.ar    
  37 C37            3.0873     5.0350    -1.9671 C.3     
  38 C38            4.3310     5.9261    -1.9660 C.3     
  39 H39            3.4985     0.9268    -2.0892 H       
  40 H40            3.2815     1.2412    -0.3507 H       
  41 H41            0.8413     0.8702    -0.5883 H       
  42 H42            1.0584     0.5558    -2.3268 H       
  43 H43            2.7584    -1.1818    -0.8890 H       
  44 H44            2.7463    -4.2365    -1.6583 H       
  45 H45            3.2142    -2.7193    -0.8470 H       
  46 H46            3.7559    -4.8569     0.4546 H       
  47 H47            2.7704    -3.6633     1.3396 H       
  48 H48           -0.3398    -5.7687     0.6619 H       
  49 H49            0.1281    -4.2515     1.4733 H       
  50 H50           -0.8809    -3.6297    -0.6304 H       
  51 H51            0.1001    -4.8248    -1.5184 H       
  52 H52            1.9001    -9.2336     0.0323 H       
  53 H53            0.1100   -10.8491     0.4993 H       
  54 H54           -2.0278    -7.8593     2.6956 H       
  55 H55           -0.2373    -6.2398     2.2439 H       
  56 H56           -2.4238   -10.9344     1.1774 H       
  57 H57           -1.1442   -14.9652     2.3476 H       
  58 H58            0.6767   -15.8014     3.7739 H       
  59 H59            1.5666   -14.3900     5.5833 H       
  60 H60            1.4644   -12.2131     6.8063 H       
  61 H61            0.4532   -10.0115     7.0771 H       
  62 H62           -1.3632    -9.2724     5.5964 H       
  63 H63            2.6125     5.0749    -2.9474 H       
  64 H64            2.3872     5.3874    -1.2096 H       
  65 H65            4.8058     5.8862    -0.9857 H       
  66 H66            5.0312     5.5737    -2.7234 H       
  67 H67            4.0421     6.9534    -2.1882 H       
@<TRIPOS>BOND
   1    1    2 1
   2    1    4 2
   3    1    5 1
   4    2    3 1
   5    2   39 1
   6    2   40 1
   7    3    8 1
   8    3   41 1
   9    3   42 1
  10    5   37 1
  11    6    7 2
  12    6    8 am
  13    6    9 am
  14    8   43 1
  15    9   10 1
  16    9   14 1
  17   10   11 1
  18   10   44 1
  19   10   45 1
  20   11   12 1
  21   11   46 1
  22   11   47 1
  23   12   13 1
  24   12   15 am
  25   13   14 1
  26   13   48 1
  27   13   49 1
  28   14   50 1
  29   14   51 1
  30   15   16 1
  31   15   22 2
  32   16   17 ar
  33   16   21 ar
  34   17   18 ar
  35   17   52 1
  36   18   19 ar
  37   18   53 1
  38   19   20 ar
  39   19   26 1
  40   20   21 ar
  41   20   54 1
  42   21   55 1
  43   23   24 2
  44   23   25 2
  45   23   26 am
  46   23   35 1
  47   26   56 1
  48   27   28 ar
  49   27   36 ar
  50   28   29 ar
  51   28   57 1
  52   29   30 ar
  53   29   58 1
  54   30   31 ar
  55   30   59 1
  56   31   32 ar
  57   31   36 ar
  58   32   33 ar
  59   32   60 1
  60   33   34 ar
  61   33   61 1
  62   34   35 ar
  63   34   62 1
  64   35   36 ar
  65   37   38 1
  66   37   63 1
  67   37   64 1
  68   38   65 1
  69   38   66 1
  70   38   67 1

#	End of record

