#	Name: ASD03730113
#	Creating user name:	WinNT
#	Creation time:	15. 06. 2019 20:44

#	Modifying user name:	WinNT
#	Modification time:	15. 06. 2019 20:44

#	Program:	/corina/corina34_cracker 3.40 0067  02.08.2006

@<TRIPOS>MOLECULE
ASD03730113
  58   63    0    0    0
SMALL
NO_CHARGES


@<TRIPOS>ATOM
   1 C1            -0.0184     1.5028     0.0103 C.2     
   2 C2             0.0021    -0.0041     0.0020 C.3     
   3 O3             1.0236     2.1234     0.0037 O.2     
   4 N4            -1.1946     2.1607     0.0195 N.am    
   5 C5            -1.2145     3.6256     0.0275 C.3     
   6 C6            -1.2282     4.1433    -1.4121 C.3     
   7 C7            -1.2487     5.6502    -1.4039 C.ar    
   8 C8            -0.0610     6.3576    -1.4056 C.ar    
   9 C9            -0.0798     7.7398    -1.3980 C.ar    
  10 C10           -1.2862     8.4146    -1.3890 C.ar    
  11 C11           -2.4738     7.7072    -1.3881 C.ar    
  12 C12           -2.4551     6.3250    -1.4002 C.ar    
  13 O13            6.2459     2.8794     2.0976 O.3     
  14 C14            7.6663     2.8233     2.3260 C.3     
  15 O15            7.8789     1.4934     2.8350 O.3     
  16 C16            6.8679     0.7368     2.3152 C.ar    
  17 C17            5.8636     1.5896     1.8629 C.ar    
  18 C18            6.7212    -0.6329     2.1884 C.ar    
  19 C19            5.5735    -1.1688     1.6121 C.ar    
  20 C20            4.5736    -0.3071     1.1716 C.ar    
  21 C21            4.7194     1.0592     1.2910 C.ar    
  22 O22            5.2412    -2.4710     1.3795 O.3     
  23 C23            3.4673    -1.1739     0.6323 C.3     
  24 C24            3.8195    -2.5682     1.1684 C.3     
  25 N25            1.3897    -0.4735    -0.0138 N.am    
  26 C26            2.1130    -0.7212     1.0965 C.2     
  27 C27            3.4026    -1.1504    -0.8661 C.ar    
  28 C28            4.3041    -1.4527    -1.8622 C.ar    
  29 C29            3.9367    -1.3289    -3.1903 C.ar    
  30 C30            2.6624    -0.9003    -3.5148 C.ar    
  31 C31            1.7562    -0.5954    -2.5207 C.ar    
  32 C32            2.1172    -0.7175    -1.1811 C.ar    
  33 O33            1.7424    -0.6020     2.2452 O.2     
  34 C34           -2.4532     1.4111     0.0214 C.3     
  35 H35           -0.4983    -0.3791     0.8948 H       
  36 H36           -0.5153    -0.3696    -0.8850 H       
  37 H37           -2.1068     3.9740     0.5475 H       
  38 H38           -0.3271     3.9982     0.5392 H       
  39 H39           -0.3358     3.7949    -1.9321 H       
  40 H40           -2.1156     3.7707    -1.9238 H       
  41 H41            0.8815     5.8303    -1.4127 H       
  42 H42            0.8481     8.2924    -1.3987 H       
  43 H43           -1.3008     9.4945    -1.3823 H       
  44 H44           -3.4164     8.2344    -1.3808 H       
  45 H45           -3.3830     5.7724    -1.4032 H       
  46 H46            8.2103     2.9676     1.3925 H       
  47 H47            7.9653     3.5680     3.0637 H       
  48 H48            7.5027    -1.2907     2.5390 H       
  49 H49            3.9391     1.7171     0.9379 H       
  50 H50            3.5894    -3.3363     0.4301 H       
  51 H51            3.3012    -2.7643     2.1070 H       
  52 H52            5.2987    -1.7870    -1.6065 H       
  53 H53            4.6432    -1.5667    -3.9717 H       
  54 H54            2.3756    -0.8035    -4.5515 H       
  55 H55            0.7631    -0.2608    -2.7820 H       
  56 H56           -2.7605     1.2195     1.0495 H       
  57 H57           -3.2232     1.9925    -0.4857 H       
  58 H58           -2.3124     0.4633    -0.4983 H       
@<TRIPOS>BOND
   1    1    2 1
   2    1    3 2
   3    1    4 am
   4    2   25 1
   5    2   35 1
   6    2   36 1
   7    4    5 1
   8    4   34 1
   9    5    6 1
  10    5   37 1
  11    5   38 1
  12    6    7 1
  13    6   39 1
  14    6   40 1
  15    7    8 ar
  16    7   12 ar
  17    8    9 ar
  18    8   41 1
  19    9   10 ar
  20    9   42 1
  21   10   11 ar
  22   10   43 1
  23   11   12 ar
  24   11   44 1
  25   12   45 1
  26   13   14 1
  27   13   17 1
  28   14   15 1
  29   14   46 1
  30   14   47 1
  31   15   16 1
  32   16   17 ar
  33   16   18 ar
  34   17   21 ar
  35   18   19 ar
  36   18   48 1
  37   19   20 ar
  38   19   22 1
  39   20   21 ar
  40   20   23 1
  41   21   49 1
  42   22   24 1
  43   23   24 1
  44   23   26 1
  45   23   27 1
  46   24   50 1
  47   24   51 1
  48   25   26 am
  49   25   32 1
  50   26   33 2
  51   27   28 ar
  52   27   32 ar
  53   28   29 ar
  54   28   52 1
  55   29   30 ar
  56   29   53 1
  57   30   31 ar
  58   30   54 1
  59   31   32 ar
  60   31   55 1
  61   34   56 1
  62   34   57 1
  63   34   58 1

#	End of record

