#	Name: ASD07800001
#	Creating user name:	WinNT
#	Creation time:	15. 06. 2019 21:11

#	Modifying user name:	WinNT
#	Modification time:	15. 06. 2019 21:11

#	Program:	/corina/corina34_cracker 3.40 0067  02.08.2006

@<TRIPOS>MOLECULE
ASD07800001
  24   25    0    0    0
SMALL
NO_CHARGES


@<TRIPOS>ATOM
   1 Cl1            0.1777     4.2885    -0.3047 Cl      
   2 Cl2           -0.0946    -4.5070     0.1915 Cl      
   3 Cl3            0.1262     4.2662     5.0969 Cl      
   4 O4            -0.0164     1.3557     0.0095 O.3     
   5 O5            -2.4109     0.0167     0.2538 O.3     
   6 C6            -0.0357    -0.0034     0.0521 C.ar    
   7 C7             0.0163     2.0307     1.1888 C.ar    
   8 C8            -1.2457    -0.6800     0.1751 C.ar    
   9 C9             1.1490    -0.7176    -0.0325 C.ar    
  10 C10            0.1062     3.4161     1.1945 C.ar    
  11 C11           -0.0459     1.3367     2.3884 C.ar    
  12 C12           -1.2607    -2.0648     0.2177 C.ar    
  13 C13            1.1280    -2.0990     0.0104 C.ar    
  14 C14            0.1393     4.1003     2.3954 C.ar    
  15 C15           -0.0126     2.0245     3.5860 C.ar    
  16 C16           -0.0743    -2.7719     0.1380 C.ar    
  17 C17            0.0833     3.4050     3.5902 C.ar    
  18 H18           -2.8228     0.1923    -0.6033 H       
  19 H19            2.0887    -0.1947    -0.1325 H       
  20 H20           -0.1208     0.2593     2.3860 H       
  21 H21           -2.1983    -2.5921     0.3135 H       
  22 H22            2.0519    -2.6544    -0.0560 H       
  23 H23            0.2093     5.1780     2.4008 H       
  24 H24           -0.0614     1.4842     4.5199 H       
@<TRIPOS>BOND
   1    1   10 1
   2    2   16 1
   3    3   17 1
   4    4    6 1
   5    4    7 1
   6    5    8 1
   7    5   18 1
   8    6    8 ar
   9    6    9 ar
  10    7   10 ar
  11    7   11 ar
  12    8   12 ar
  13    9   13 ar
  14    9   19 1
  15   10   14 ar
  16   11   15 ar
  17   11   20 1
  18   12   16 ar
  19   12   21 1
  20   13   16 ar
  21   13   22 1
  22   14   17 ar
  23   14   23 1
  24   15   17 ar
  25   15   24 1

#	End of record

