#	Name: ASD02408454
#	Creating user name:	WinNT
#	Creation time:	15. 06. 2019 20:21

#	Modifying user name:	WinNT
#	Modification time:	15. 06. 2019 20:21

#	Program:	/corina/corina34_cracker 3.40 0067  02.08.2006

@<TRIPOS>MOLECULE
ASD02408454
  41   42    0    0    0
SMALL
NO_CHARGES


@<TRIPOS>ATOM
   1 C1             0.2416     1.1272    -0.1910 C.2     
   2 C2             0.1553    -0.2724    -0.1251 C.2     
   3 N3            -1.1676    -0.5780    -0.0876 N.pl3   
   4 N4            -1.8967     0.6170    -0.1297 N.2     
   5 C5            -1.0739     1.6272    -0.1958 C.2     
   6 C6            -1.7347    -1.9269    -0.0163 C.3     
   7 C7            -2.5747    -2.0604     1.2555 C.3     
   8 C8            -1.6677    -1.9352     2.4813 C.3     
   9 C9            -1.7548    -2.1745    -2.5024 C.3     
  10 C10           -2.6193    -2.1736    -1.2400 C.3     
  11 C11            1.5716     1.7341    -0.2429 C.2     
  12 N12            2.6395     0.9024    -0.2240 N.am    
  13 N13            1.2848    -0.9977    -0.1118 N.2     
  14 O14            1.7129     2.9427    -0.3014 O.2     
  15 C15            2.4594    -0.4409    -0.1590 C.2     
  16 C16            3.6768    -1.3290    -0.1407 C.3     
  17 C17            3.2389    -2.7930    -0.0654 C.3     
  18 C18            2.4848    -3.1662    -1.3433 C.3     
  19 C19            4.4719    -3.6873     0.0788 C.3     
  20 H20           -1.3542     2.6692    -0.2400 H       
  21 H21           -0.9280    -2.6597     0.0026 H       
  22 H22           -3.3272    -1.2721     1.2783 H       
  23 H23           -3.0669    -3.0329     1.2655 H       
  24 H24           -2.2493    -2.1213     3.3842 H       
  25 H25           -0.8607    -2.6646     2.4122 H       
  26 H26           -1.2469    -0.9305     2.5208 H       
  27 H27           -1.3313    -1.1815    -2.6534 H       
  28 H28           -0.9491    -2.9000    -2.3905 H       
  29 H29           -2.3682    -2.4425    -3.3626 H       
  30 H30           -3.1172    -3.1381    -1.1399 H       
  31 H31           -3.3675    -1.3843    -1.3125 H       
  32 H32            3.5373     1.2683    -0.2574 H       
  33 H33            4.2566    -1.1694    -1.0498 H       
  34 H34            4.2894    -1.0878     0.7280 H       
  35 H35            2.5857    -2.9331     0.7960 H       
  36 H36            3.1380    -3.0262    -2.2046 H       
  37 H37            2.1729    -4.2092    -1.2896 H       
  38 H38            1.6064    -2.5291    -1.4460 H       
  39 H39            5.0091    -3.4215     0.9892 H       
  40 H40            4.1600    -4.7304     0.1325 H       
  41 H41            5.1251    -3.5473    -0.7825 H       
@<TRIPOS>BOND
   1    1    2 2
   2    1   11 1
   3    1    5 1
   4    2    3 1
   5    2   13 1
   6    3    4 1
   7    3    6 1
   8    4    5 2
   9    5   20 1
  10    6    7 1
  11    6   10 1
  12    6   21 1
  13    7    8 1
  14    7   22 1
  15    7   23 1
  16    8   24 1
  17    8   25 1
  18    8   26 1
  19    9   10 1
  20    9   27 1
  21    9   28 1
  22    9   29 1
  23   10   30 1
  24   10   31 1
  25   11   12 am
  26   11   14 2
  27   12   15 1
  28   12   32 1
  29   13   15 2
  30   15   16 1
  31   16   17 1
  32   16   33 1
  33   16   34 1
  34   17   18 1
  35   17   19 1
  36   17   35 1
  37   18   36 1
  38   18   37 1
  39   18   38 1
  40   19   39 1
  41   19   40 1
  42   19   41 1

#	End of record

