#	Name: ASD01815744
#	Creating user name:	WinNT
#	Creation time:	15. 06. 2019 19:33

#	Modifying user name:	WinNT
#	Modification time:	15. 06. 2019 19:33

#	Program:	/corina/corina34_cracker 3.40 0067  02.08.2006

@<TRIPOS>MOLECULE
ASD01815744
  60   65    0    0    0
SMALL
NO_CHARGES


@<TRIPOS>ATOM
   1 C1            -0.6002     0.6442     0.3247 C.ar    
   2 C2            -0.3254    -0.7189     0.2831 C.ar    
   3 C3             0.9553    -1.1735     0.1777 C.ar    
   4 C4             2.0161    -0.2574     0.1097 C.ar    
   5 C5             1.7325     1.1295     0.1523 C.ar    
   6 C6             0.4071     1.5623     0.2608 C.ar    
   7 C7             3.3516    -0.6982    -0.0002 C.ar    
   8 C8             4.3773     0.1838    -0.0665 C.ar    
   9 C9             4.1508     1.5685    -0.0284 C.ar    
  10 C10            2.8429     2.0748     0.0809 C.ar    
  11 C11            5.2550     2.5340    -0.1005 C.2     
  12 N12            4.9376     3.8488    -0.0572 N.am    
  13 C13            3.6436     4.2414     0.0493 C.2     
  14 N14            2.6498     3.4040     0.1143 N.2     
  15 O15            6.4119     2.1656    -0.1951 O.2     
  16 C16            5.9995     4.8557    -0.1254 C.3     
  17 C17            5.9737     5.7144     1.1427 C.3     
  18 C18            7.0343     6.8124     1.0278 C.3     
  19 O19            6.7840     7.5941    -0.1420 O.3     
  20 C20            6.8422     6.8530    -1.3624 C.3     
  21 C21            5.7739     5.7566    -1.3435 C.3     
  22 C22            3.6422    -2.1763    -0.0442 C.3     
  23 C23            3.5085    -2.6726    -1.4608 C.ar    
  24 C24            4.6071    -2.6661    -2.3006 C.ar    
  25 C25            4.4882    -3.1202    -3.5994 C.ar    
  26 C26            3.2631    -3.5839    -4.0619 C.ar    
  27 C27            2.1615    -3.5890    -3.2157 C.ar    
  28 C28            2.2889    -3.1388    -1.9163 C.ar    
  29 O29            6.2552     4.8957     2.2796 O.3     
  30 N30            3.1391    -4.0435    -5.3750 N.3     
  31 C31            4.3578    -4.7552    -5.8032 C.3     
  32 C32            3.4484    -5.7916    -6.4780 C.3     
  33 C33            2.4352    -5.3387    -5.4174 C.3     
  34 F34            3.0870    -5.4685    -7.7904 F       
  35 F35            3.8795    -7.1143    -6.3305 F       
  36 H36           -1.6237     0.9799     0.4040 H       
  37 H37           -1.1388    -1.4274     0.3355 H       
  38 H38            1.1529    -2.2348     0.1469 H       
  39 H39            0.1819     2.6180     0.2936 H       
  40 H40            5.3888    -0.1854    -0.1499 H       
  41 H41            3.4279     5.2992     0.0818 H       
  42 H42            6.9673     4.3616    -0.2116 H       
  43 H43            4.9894     6.1690     1.2548 H       
  44 H44            6.9916     7.4527     1.9089 H       
  45 H45            8.0223     6.3575     0.9564 H       
  46 H46            6.6611     7.5225    -2.2033 H       
  47 H47            7.8277     6.3986    -1.4651 H       
  48 H48            5.8457     5.1623    -2.2544 H       
  49 H49            4.7856     6.2121    -1.2817 H       
  50 H50            4.6568    -2.3578     0.3102 H       
  51 H51            2.9343    -2.7049     0.5943 H       
  52 H52            5.5592    -2.3052    -1.9405 H       
  53 H53            5.3465    -3.1146    -4.2548 H       
  54 H54            1.2077    -3.9488    -3.5721 H       
  55 H55            1.4329    -3.1428    -1.2577 H       
  56 H56            6.2552     5.3752     3.1193 H       
  57 H57            4.9671    -4.1883    -6.5071 H       
  58 H58            4.9377    -5.1607    -4.9741 H       
  59 H59            2.5020    -5.9000    -4.4854 H       
  60 H60            1.4150    -5.2663    -5.7944 H       
@<TRIPOS>BOND
   1    1    2 ar
   2    1    6 ar
   3    1   36 1
   4    2    3 ar
   5    2   37 1
   6    3    4 ar
   7    3   38 1
   8    4    5 ar
   9    4    7 ar
  10    5    6 ar
  11    5   10 ar
  12    6   39 1
  13    7    8 ar
  14    7   22 1
  15    8    9 ar
  16    8   40 1
  17    9   10 ar
  18    9   11 1
  19   10   14 1
  20   11   12 am
  21   11   15 2
  22   12   13 1
  23   12   16 1
  24   13   14 2
  25   13   41 1
  26   16   17 1
  27   16   21 1
  28   16   42 1
  29   17   18 1
  30   17   29 1
  31   17   43 1
  32   18   19 1
  33   18   44 1
  34   18   45 1
  35   19   20 1
  36   20   21 1
  37   20   46 1
  38   20   47 1
  39   21   48 1
  40   21   49 1
  41   22   23 1
  42   22   50 1
  43   22   51 1
  44   23   24 ar
  45   23   28 ar
  46   24   25 ar
  47   24   52 1
  48   25   26 ar
  49   25   53 1
  50   26   27 ar
  51   26   30 1
  52   27   28 ar
  53   27   54 1
  54   28   55 1
  55   29   56 1
  56   30   31 1
  57   30   33 1
  58   31   32 1
  59   31   57 1
  60   31   58 1
  61   32   33 1
  62   32   34 1
  63   32   35 1
  64   33   59 1
  65   33   60 1

#	End of record

