#	Name: ASD03090242
#	Creating user name:	WinNT
#	Creation time:	15. 06. 2019 20:28

#	Modifying user name:	WinNT
#	Modification time:	15. 06. 2019 20:28

#	Program:	/corina/corina34_cracker 3.40 0067  02.08.2006

@<TRIPOS>MOLECULE
ASD03090242
  45   47    0    0    0
SMALL
NO_CHARGES


@<TRIPOS>ATOM
   1 N1             0.2130     1.2950     1.8475 N.ar    
   2 C2             0.2236    -0.0050     1.6227 C.ar    
   3 C3             1.3540    -0.6312     1.1395 C.ar    
   4 C4             2.4984     0.1338     0.8883 C.ar    
   5 C5             2.4421     1.5084     1.1410 C.ar    
   6 C6             1.2695     2.0524     1.6244 C.ar    
   7 C7             3.7344    -0.4943     0.3701 C.2     
   8 N8             5.5503    -3.0833    -1.1640 N.pl3   
   9 C9             4.6527    -4.1021    -1.5001 C.ar    
  10 C10            3.3435    -3.7905    -1.8426 C.ar    
  11 C11            2.4589    -4.7983    -2.1741 C.ar    
  12 C12            2.8765    -6.1182    -2.1646 C.ar    
  13 C13            4.1817    -6.4314    -1.8233 C.ar    
  14 C14            5.0712    -5.4267    -1.4972 C.ar    
  15 N15            3.8221    -1.6811    -0.1961 N.2     
  16 C16            5.0874    -1.9225    -0.5414 C.2     
  17 N17            5.8283    -0.8926    -0.2008 N.2     
  18 N18            4.9711     0.0506     0.3888 N.pl3   
  19 C19            5.3447     1.3618     0.9250 C.3     
  20 C20            6.8686     1.4978     0.9242 C.3     
  21 F21            2.0094    -7.1024    -2.4882 F       
  22 C22            7.2613     2.8393     1.5463 C.3     
  23 O23            7.3517     1.4361    -0.4192 O.3     
  24 C24           -1.0157    -0.8170     1.8980 C.3     
  25 C25            4.6331    -7.8691    -1.8134 C.3     
  26 F26            5.9799    -7.9325    -1.4402 F       
  27 F27            3.8612    -8.5940    -0.8991 F       
  28 F28            4.4773    -8.4156    -3.0918 F       
  29 H29            1.3557    -1.6958     0.9581 H       
  30 H30            3.3035     2.1345     0.9609 H       
  31 H31            1.2161     3.1128     1.8222 H       
  32 H32            6.4943    -3.1832    -1.3635 H       
  33 H33            3.0171    -2.7610    -1.8494 H       
  34 H34            1.4406    -4.5564    -2.4405 H       
  35 H35            6.0890    -5.6713    -1.2316 H       
  36 H36            4.9097     2.1454     0.3046 H       
  37 H37            4.9719     1.4569     1.9448 H       
  38 H38            7.3061     0.6860     1.5053 H       
  39 H39            6.8928     2.8864     2.5710 H       
  40 H40            8.3470     2.9362     1.5457 H       
  41 H41            6.8238     3.6512     0.9652 H       
  42 H42            6.9471     2.0834    -1.0128 H       
  43 H43           -1.6356    -0.8490     1.0020 H       
  44 H44           -0.7307    -1.8309     2.1791 H       
  45 H45           -1.5771    -0.3585     2.7121 H       
@<TRIPOS>BOND
   1    1    2 ar
   2    1    6 ar
   3    2    3 ar
   4    2   24 1
   5    3    4 ar
   6    3   29 1
   7    4    5 ar
   8    4    7 1
   9    5    6 ar
  10    5   30 1
  11    6   31 1
  12    7   15 2
  13    7   18 1
  14    8    9 1
  15    8   16 1
  16    8   32 1
  17    9   10 ar
  18    9   14 ar
  19   10   11 ar
  20   10   33 1
  21   11   12 ar
  22   11   34 1
  23   12   13 ar
  24   12   21 1
  25   13   14 ar
  26   13   25 1
  27   14   35 1
  28   15   16 1
  29   16   17 2
  30   17   18 1
  31   18   19 1
  32   19   20 1
  33   19   36 1
  34   19   37 1
  35   20   22 1
  36   20   23 1
  37   20   38 1
  38   22   39 1
  39   22   40 1
  40   22   41 1
  41   23   42 1
  42   24   43 1
  43   24   44 1
  44   24   45 1
  45   25   26 1
  46   25   27 1
  47   25   28 1

#	End of record

