#	Name: ASD01811001
#	Creating user name:	WinNT
#	Creation time:	15. 06. 2019 19:25

#	Modifying user name:	WinNT
#	Modification time:	15. 06. 2019 19:25

#	Program:	/corina/corina34_cracker 3.40 0067  02.08.2006

@<TRIPOS>MOLECULE
ASD01811001
  69   72    0    0    0
SMALL
NO_CHARGES


@<TRIPOS>ATOM
   1 C1            -0.0167     1.3810     0.0096 C.ar    
   2 C2             0.0021    -0.0041     0.0020 C.ar    
   3 C3             1.2185    -0.6805    -0.0132 C.ar    
   4 C4             2.4050     0.0345    -0.0207 C.ar    
   5 C5             2.3792     1.4170    -0.0130 C.ar    
   6 C6             1.1713     2.0887     0.0021 C.ar    
   7 C7             4.0885     2.4595    -1.4440 C.2     
   8 O8             3.4045     2.0586    -2.3618 O.2     
   9 N9             5.2220     3.1433    -1.6970 N.am    
  10 C10            5.6280     3.4022    -3.0806 C.3     
  11 C11            6.5167     4.6482    -3.1285 C.3     
  12 C12            6.9870     4.8784    -4.5665 C.3     
  13 N13            7.7349     3.7035    -5.0322 N.3     
  14 C14            6.8882     2.5038    -5.0399 C.3     
  15 C15            6.4149     2.2028    -3.6160 C.3     
  16 C16            8.3199     3.9435    -6.3582 C.3     
  17 C17            9.2885     2.8099    -6.7011 C.3     
  18 C18            9.8977     3.0598    -8.0821 C.3     
  19 C19            3.6709     2.1932    -0.0207 C.3     
  20 N20           10.8251     1.9743    -8.4104 N.am    
  21 C21           10.3743     0.8818    -9.0538 C.2     
  22 C22           11.3038    -0.2542    -9.3861 C.3     
  23 C23           13.1203     1.2774    -8.6793 C.ar    
  24 C24           12.1750     2.0831    -8.0580 C.ar    
  25 O25            9.2052     0.8117    -9.3693 O.2     
  26 C26           12.5711     2.9940    -7.0886 C.ar    
  27 C27           14.4531     1.3833    -8.3337 C.ar    
  28 C28           14.8481     2.2910    -7.3659 C.ar    
  29 C29           13.9068     3.0970    -6.7436 C.ar    
  30 O30            1.2422    -2.0402    -0.0203 O.3     
  31 O31           -1.1654    -0.7015     0.0099 O.3     
  32 C32            2.5264    -2.6666    -0.0360 C.3     
  33 C33           -2.3752     0.0589     0.0260 C.3     
  34 C34           12.6904     0.2910    -9.7297 C.3     
  35 F35           14.2943     3.9835    -5.8006 F       
  36 F36           16.1524     2.3933    -7.0290 F       
  37 H37           -0.9592     1.9083     0.0170 H       
  38 H38            3.3502    -0.4879    -0.0322 H       
  39 H39            1.1553     3.1685     0.0077 H       
  40 H40            5.7691     3.4640    -0.9630 H       
  41 H41            4.7427     3.5623    -3.6961 H       
  42 H42            5.9483     5.5139    -2.7886 H       
  43 H43            7.3818     4.5032    -2.4815 H       
  44 H44            6.1220     5.0370    -5.2106 H       
  45 H45            7.6317     5.7566    -4.6016 H       
  46 H46            6.0237     2.6736    -5.6817 H       
  47 H47            7.4610     1.6574    -5.4188 H       
  48 H48            7.2784     2.0193    -2.9767 H       
  49 H49            5.7737     1.3213    -3.6244 H       
  50 H50            7.5260     3.9812    -7.1041 H       
  51 H51            8.8578     4.8915    -6.3518 H       
  52 H52           10.0823     2.7722    -5.9551 H       
  53 H53            8.7505     1.8619    -6.7074 H       
  54 H54            9.1038     3.0975    -8.8280 H       
  55 H55           10.4356     4.0078    -8.0757 H       
  56 H56            3.5288     3.1404     0.4995 H       
  57 H57            4.4454     1.6147     0.4829 H       
  58 H58           11.3799    -0.9224    -8.5283 H       
  59 H59           10.9101    -0.8063   -10.2395 H       
  60 H60           11.8376     3.6217    -6.6045 H       
  61 H61           15.1875     0.7563    -8.8173 H       
  62 H62            3.0696    -2.3596    -0.9297 H       
  63 H63            3.0869    -2.3686     0.8501 H       
  64 H64            2.4024    -3.7495    -0.0402 H       
  65 H65           -3.2296    -0.6179     0.0308 H       
  66 H66           -2.4006     0.6825     0.9196 H       
  67 H67           -2.4182     0.6920    -0.8603 H       
  68 H68           13.4040    -0.5319    -9.7712 H       
  69 H69           12.6547     0.7896   -10.6983 H       
@<TRIPOS>BOND
   1    1    2 ar
   2    1    6 ar
   3    1   37 1
   4    2    3 ar
   5    2   31 1
   6    3    4 ar
   7    3   30 1
   8    4    5 ar
   9    4   38 1
  10    5    6 ar
  11    5   19 1
  12    6   39 1
  13    7    8 2
  14    7    9 am
  15    7   19 1
  16    9   10 1
  17    9   40 1
  18   10   11 1
  19   10   15 1
  20   10   41 1
  21   11   12 1
  22   11   42 1
  23   11   43 1
  24   12   13 1
  25   12   44 1
  26   12   45 1
  27   13   14 1
  28   13   16 1
  29   14   15 1
  30   14   46 1
  31   14   47 1
  32   15   48 1
  33   15   49 1
  34   16   17 1
  35   16   50 1
  36   16   51 1
  37   17   18 1
  38   17   52 1
  39   17   53 1
  40   18   20 1
  41   18   54 1
  42   18   55 1
  43   19   56 1
  44   19   57 1
  45   20   21 am
  46   20   24 1
  47   21   22 1
  48   21   25 2
  49   22   34 1
  50   22   58 1
  51   22   59 1
  52   23   24 ar
  53   23   27 ar
  54   23   34 1
  55   24   26 ar
  56   26   29 ar
  57   26   60 1
  58   27   28 ar
  59   27   61 1
  60   28   36 1
  61   28   29 ar
  62   29   35 1
  63   30   32 1
  64   31   33 1
  65   32   62 1
  66   32   63 1
  67   32   64 1
  68   33   65 1
  69   33   66 1
  70   33   67 1
  71   34   68 1
  72   34   69 1

#	End of record

