#	Name: ASD03090796
#	Creating user name:	WinNT
#	Creation time:	15. 06. 2019 20:29

#	Modifying user name:	WinNT
#	Modification time:	15. 06. 2019 20:29

#	Program:	/corina/corina34_cracker 3.40 0067  02.08.2006

@<TRIPOS>MOLECULE
ASD03090796
  42   43    0    0    0
SMALL
NO_CHARGES


@<TRIPOS>ATOM
   1 C1            -1.3959     0.6369     1.9489 C.ar    
   2 N2            -1.7418    -0.6353     1.9365 N.ar    
   3 C3            -2.8598    -1.0505     1.3723 C.ar    
   4 C4            -3.7221    -0.1565     0.7644 C.ar    
   5 C5            -3.3936     1.2015     0.7549 C.ar    
   6 C6            -2.2022     1.5969     1.3695 C.ar    
   7 C7            -4.2879     2.1973     0.1148 C.2     
   8 N8            -5.4265     1.7994    -0.4638 N.2     
   9 C9            -6.2729     2.6976    -0.9489 C.2     
  10 N10           -6.6808     2.6189    -2.2506 N.pl3   
  11 C11           -7.6688     3.4863    -2.7274 C.ar    
  12 C12           -7.5344     4.0718    -3.9784 C.ar    
  13 C13           -9.6296     5.2038    -3.6660 C.ar    
  14 C14           -9.7646     4.6152    -2.4227 C.ar    
  15 C15           -8.7890     3.7585    -1.9516 C.ar    
  16 C16           -8.5158     4.9311    -4.4475 C.ar    
  17 O17           -8.3870     5.5065    -5.6719 O.3     
  18 S18           -6.8715     3.9926     0.0852 S.3     
  19 O19           -3.9854     3.3771     0.1162 O.2     
  20 Cl20          -3.2532    -2.7412     1.3928 Cl      
  21 C21           -0.1061     1.0498     2.6098 C.3     
  22 C22           -7.2148     5.1811    -6.4216 C.3     
  23 C23          -10.9753     4.9141    -1.5766 C.3     
  24 F24          -11.8116     5.8053    -2.2574 F       
  25 F25          -11.6694     3.7268    -1.3199 F       
  26 F26          -10.5689     5.4875    -0.3670 F       
  27 C27           -5.3965     5.0386     0.1647 C.3     
  28 H28           -4.6354    -0.5028     0.3037 H       
  29 H29           -1.9122     2.6372     1.3839 H       
  30 H30           -6.2852     1.9614    -2.8439 H       
  31 H31           -6.6667     3.8588    -4.5851 H       
  32 H32          -10.3941     5.8732    -4.0316 H       
  33 H33           -8.8970     3.2997    -0.9799 H       
  34 H34            0.7017     1.0230     1.8785 H       
  35 H35           -0.2069     2.0615     3.0029 H       
  36 H36            0.1198     0.3637     3.4261 H       
  37 H37           -6.3298     5.4832    -5.8615 H       
  38 H38           -7.1833     4.1060    -6.5984 H       
  39 H39           -7.2369     5.7060    -7.3766 H       
  40 H40           -4.9130     4.9119     1.1334 H       
  41 H41           -4.7045     4.7516    -0.6271 H       
  42 H42           -5.6838     6.0821     0.0357 H       
@<TRIPOS>BOND
   1    1    2 ar
   2    1   21 1
   3    1    6 ar
   4    2    3 ar
   5    3    4 ar
   6    3   20 1
   7    4    5 ar
   8    4   28 1
   9    5    6 ar
  10    5    7 1
  11    6   29 1
  12    7    8 1
  13    7   19 2
  14    8    9 2
  15    9   10 1
  16    9   18 1
  17   10   11 1
  18   10   30 1
  19   11   12 ar
  20   11   15 ar
  21   12   16 ar
  22   12   31 1
  23   13   14 ar
  24   13   16 ar
  25   13   32 1
  26   14   15 ar
  27   14   23 1
  28   15   33 1
  29   16   17 1
  30   17   22 1
  31   18   27 1
  32   21   34 1
  33   21   35 1
  34   21   36 1
  35   22   37 1
  36   22   38 1
  37   22   39 1
  38   23   24 1
  39   23   25 1
  40   23   26 1
  41   27   40 1
  42   27   41 1
  43   27   42 1

#	End of record

