#	Name: ASD01910992
#	Creating user name:	WinNT
#	Creation time:	15. 06. 2019 19:56

#	Modifying user name:	WinNT
#	Modification time:	15. 06. 2019 19:56

#	Program:	/corina/corina34_cracker 3.40 0067  02.08.2006

@<TRIPOS>MOLECULE
ASD01910992
  48   51    0    0    0
SMALL
NO_CHARGES


@<TRIPOS>ATOM
   1 N1             0.2566     1.0852    -0.0658 N.3     
   2 C2             0.0721    -0.3372     0.2515 C.3     
   3 C3            -1.4230    -0.6313     0.4135 C.3     
   4 N4            -2.1238    -0.1674    -0.7935 N.am    
   5 C5            -1.8815     1.2084    -1.2534 C.3     
   6 C6            -0.3683     1.4301    -1.3498 C.3     
   7 C7            -2.9654    -0.9817    -1.4607 C.2     
   8 C8            -3.7578    -0.4581    -2.5926 C.ar    
   9 C9            -3.9423    -1.2381    -3.7374 C.ar    
  10 C10           -4.6819    -0.7529    -4.7963 C.ar    
  11 C11           -5.2464     0.5085    -4.7333 C.ar    
  12 C12           -5.0691     1.3010    -3.5912 C.ar    
  13 C13           -4.3269     0.8118    -2.5174 C.ar    
  14 C14           -5.6527     2.6070    -3.5254 C.1     
  15 O15           -3.0726    -2.1469    -1.1313 O.2     
  16 C16           -6.1312     3.6777    -3.4714 C.1     
  17 C17           -6.7148     4.9837    -3.4056 C.ar    
  18 N18           -6.5423     5.7298    -2.3186 N.ar    
  19 C19           -7.0630     6.9357    -2.2201 C.ar    
  20 C20           -7.8128     7.4726    -3.2504 C.ar    
  21 C21           -8.0186     6.7283    -4.4046 C.ar    
  22 C22           -7.4570     5.4673    -4.4865 C.ar    
  23 C23            1.6054     1.4264    -0.0602 C.ar    
  24 F24           -5.9690     0.9772    -5.7742 F       
  25 N25            2.5023     0.5622    -0.5076 N.ar    
  26 C26            3.7915     0.8457    -0.5198 C.ar    
  27 C27            4.2532     2.0643    -0.0623 C.ar    
  28 C28            3.3441     3.0003     0.4161 C.ar    
  29 C29            1.9987     2.6762     0.4109 C.ar    
  30 Cl30           5.9516     2.4229    -0.0840 Cl      
  31 Cl31           0.8189     3.8072     0.9962 Cl      
  32 H32            0.4770    -0.9458    -0.5570 H       
  33 H33            0.5919    -0.5731     1.1802 H       
  34 H34           -1.5742    -1.7038     0.5352 H       
  35 H35           -1.8077    -0.1031     1.2860 H       
  36 H36           -2.3357     1.3522    -2.2338 H       
  37 H37           -2.3102     1.9135    -0.5412 H       
  38 H38           -0.1679     2.4759    -1.5825 H       
  39 H39            0.0427     0.7969    -2.1361 H       
  40 H40           -3.5042    -2.2236    -3.7936 H       
  41 H41           -4.8205    -1.3605    -5.6784 H       
  42 H42           -4.1869     1.4175    -1.6343 H       
  43 H43           -6.9023     7.5132    -1.3217 H       
  44 H44           -8.2351     8.4624    -3.1582 H       
  45 H45           -8.6010     7.1271    -5.2219 H       
  46 H46           -7.5968     4.8617    -5.3697 H       
  47 H47            4.4943     0.1152    -0.8921 H       
  48 H48            3.6795     3.9605     0.7794 H       
@<TRIPOS>BOND
   1    1    2 1
   2    1   23 1
   3    1    6 1
   4    2    3 1
   5    2   32 1
   6    2   33 1
   7    3    4 1
   8    3   34 1
   9    3   35 1
  10    4    5 1
  11    4    7 am
  12    5    6 1
  13    5   36 1
  14    5   37 1
  15    6   38 1
  16    6   39 1
  17    7    8 1
  18    7   15 2
  19    8    9 ar
  20    8   13 ar
  21    9   10 ar
  22    9   40 1
  23   10   11 ar
  24   10   41 1
  25   11   12 ar
  26   11   24 1
  27   12   13 ar
  28   12   14 1
  29   13   42 1
  30   14   16 3
  31   16   17 1
  32   17   18 ar
  33   17   22 ar
  34   18   19 ar
  35   19   20 ar
  36   19   43 1
  37   20   21 ar
  38   20   44 1
  39   21   22 ar
  40   21   45 1
  41   22   46 1
  42   23   25 ar
  43   23   29 ar
  44   25   26 ar
  45   26   27 ar
  46   26   47 1
  47   27   28 ar
  48   27   30 1
  49   28   29 ar
  50   28   48 1
  51   29   31 1

#	End of record

