#	Name: ASD01885460
#	Creating user name:	WinNT
#	Creation time:	15. 06. 2019 19:49

#	Modifying user name:	WinNT
#	Modification time:	15. 06. 2019 19:49

#	Program:	/corina/corina34_cracker 3.40 0067  02.08.2006

@<TRIPOS>MOLECULE
ASD01885460
  47   50    0    0    0
SMALL
NO_CHARGES


@<TRIPOS>ATOM
   1 C1            -0.1573     2.6987     0.2482 C.ar    
   2 C2            -0.4492     1.3571     0.4889 C.ar    
   3 N3            -1.7083     0.8722     0.6413 N.2     
   4 C4            -2.7368     1.1955    -0.0545 C.2     
   5 C5            -2.6605     2.2281    -1.1483 C.3     
   6 C6            -2.2819     3.5473    -0.5241 C.2     
   7 N7            -1.1246     3.6872     0.1231 N.am    
   8 C8             1.1745     3.0953     0.1158 C.ar    
   9 C9             2.1970     2.1769     0.2168 C.ar    
  10 C10            1.9108     0.8426     0.4514 C.ar    
  11 C11            0.6049     0.4325     0.5870 C.ar    
  12 C12           -4.0258     0.5392     0.2235 C.ar    
  13 O13           -3.0380     4.4916    -0.6123 O.2     
  14 C14           -4.0892    -0.5286     1.1246 C.ar    
  15 C15           -5.2968    -1.1444     1.3857 C.ar    
  16 C16           -6.4494    -0.7122     0.7603 C.ar    
  17 C17           -6.4017     0.3534    -0.1430 C.ar    
  18 C18           -5.1883     0.9848    -0.4073 C.ar    
  19 C19           -7.5985     0.7992    -0.7905 C.1     
  20 N20           -8.5480     1.1529    -1.3042 N.1     
  21 C21            3.6284     2.6252     0.0713 C.3     
  22 C22            4.1752     3.0063     1.4229 C.2     
  23 O23            3.4745     2.9225     2.4037 O.2     
  24 O24            5.4411     3.4390     1.5372 O.3     
  25 C25            5.8456     3.8447     2.7699 C.ar    
  26 C26            6.1668     2.9059     3.7395 C.ar    
  27 C27            6.5782     3.3207     4.9914 C.ar    
  28 C28            6.6694     4.6702     5.2784 C.ar    
  29 C29            6.3499     5.6078     4.3137 C.ar    
  30 C30            5.9435     5.1981     3.0585 C.ar    
  31 H31           -1.9050     1.9360    -1.8778 H       
  32 H32           -3.6302     2.3176    -1.6380 H       
  33 H33           -0.9447     4.5449     0.5389 H       
  34 H34            1.4063     4.1340    -0.0683 H       
  35 H35            2.7131     0.1237     0.5280 H       
  36 H36            0.3875    -0.6094     0.7701 H       
  37 H37           -3.1914    -0.8723     1.6169 H       
  38 H38           -5.3401    -1.9685     2.0824 H       
  39 H39           -7.3905    -1.1991     0.9694 H       
  40 H40           -5.1458     1.8086    -1.1043 H       
  41 H41            4.2232     1.8123    -0.3452 H       
  42 H42            3.6733     3.4867    -0.5949 H       
  43 H43            6.0950     1.8518     3.5160 H       
  44 H44            6.8283     2.5904     5.7466 H       
  45 H45            6.9906     4.9925     6.2579 H       
  46 H46            6.4216     6.6612     4.5405 H       
  47 H47            5.6939     5.9308     2.3054 H       
@<TRIPOS>BOND
   1    1    2 ar
   2    1    8 ar
   3    1    7 1
   4    2    3 1
   5    2   11 ar
   6    3    4 2
   7    4    5 1
   8    4   12 1
   9    5    6 1
  10    5   31 1
  11    5   32 1
  12    6    7 am
  13    6   13 2
  14    7   33 1
  15    8    9 ar
  16    8   34 1
  17    9   10 ar
  18    9   21 1
  19   10   11 ar
  20   10   35 1
  21   11   36 1
  22   12   14 ar
  23   12   18 ar
  24   14   15 ar
  25   14   37 1
  26   15   16 ar
  27   15   38 1
  28   16   17 ar
  29   16   39 1
  30   17   18 ar
  31   17   19 1
  32   18   40 1
  33   19   20 3
  34   21   22 1
  35   21   41 1
  36   21   42 1
  37   22   23 2
  38   22   24 1
  39   24   25 1
  40   25   26 ar
  41   25   30 ar
  42   26   27 ar
  43   26   43 1
  44   27   28 ar
  45   27   44 1
  46   28   29 ar
  47   28   45 1
  48   29   30 ar
  49   29   46 1
  50   30   47 1

#	End of record

