#	Name: ASD05490024
#	Creating user name:	WinNT
#	Creation time:	15. 06. 2019 21:00

#	Modifying user name:	WinNT
#	Modification time:	15. 06. 2019 21:00

#	Program:	/corina/corina34_cracker 3.40 0067  02.08.2006

@<TRIPOS>MOLECULE
ASD05490024
  44   46    0    0    0
SMALL
NO_CHARGES


@<TRIPOS>ATOM
   1 O1            -0.0173     1.4248     0.0099 O.3     
   2 N2             2.7241     5.3595     0.0030 N.pl3   
   3 N3             2.2883     1.3280    -0.0127 N.ar    
   4 C4             3.4877     1.9005    -0.0215 C.ar    
   5 C5             1.1818     2.0565     0.0018 C.ar    
   6 N6             1.2068     3.3779     0.0082 N.ar    
   7 C7             2.3634     4.0326     0.0003 C.ar    
   8 C8             3.5624     3.3026    -0.0151 C.ar    
   9 N9             4.6391     1.1308    -0.0361 N.pl3   
  10 C10            4.0899     5.4129    -0.0163 C.2     
  11 N11            4.5806     4.2015    -0.0210 N.2     
  12 C12            1.8119     6.5058     0.0175 C.3     
  13 C13            1.5133     6.8921     1.4432 C.ar    
  14 C14            2.3071     7.8135     2.0993 C.ar    
  15 N15            2.0525     8.1569     3.3470 N.ar    
  16 C16            1.0399     7.6410     4.0154 C.ar    
  17 C17            0.2018     6.7128     3.4244 C.ar    
  18 C18            0.4352     6.3316     2.1112 C.ar    
  19 C19            0.0021    -0.0041     0.0020 C.3     
  20 C20           -1.4333    -0.5336     0.0129 C.3     
  21 C21           -1.4126    -2.0635     0.0045 C.3     
  22 C22           -2.8479    -2.5931     0.0153 C.3     
  23 Br23          -1.2476     5.9783     4.3916 Br      
  24 O24            4.8243     6.5500    -0.0203 O.3     
  25 C25            6.2458     6.4042    -0.0300 C.3     
  26 H26            4.5753     0.1629    -0.0401 H       
  27 H27            5.5091     1.5596    -0.0425 H       
  28 H28            2.2770     7.3467    -0.4969 H       
  29 H29            0.8842     6.2383    -0.4884 H       
  30 H30            3.1462     8.2575     1.5844 H       
  31 H31            0.8629     7.9465     5.0361 H       
  32 H32           -0.2023     5.6090     1.6235 H       
  33 H33            0.5123    -0.3556    -0.8948 H       
  34 H34            0.5293    -0.3651     0.8851 H       
  35 H35           -1.9435    -0.1821     0.9097 H       
  36 H36           -1.9605    -0.1726    -0.8702 H       
  37 H37           -0.9024    -2.4150    -0.8923 H       
  38 H38           -0.8854    -2.4246     0.8875 H       
  39 H39           -3.3581    -2.2415     0.9121 H       
  40 H40           -3.3751    -2.2320    -0.8677 H       
  41 H41           -2.8332    -3.6829     0.0093 H       
  42 H42            6.5488     5.8567    -0.9224 H       
  43 H43            6.7121     7.3894    -0.0323 H       
  44 H44            6.5608     5.8553     0.8575 H       
@<TRIPOS>BOND
   1    1   19 1
   2    1    5 1
   3    2   12 1
   4    2    7 1
   5    2   10 1
   6    3    4 ar
   7    3    5 ar
   8    4    9 1
   9    4    8 ar
  10    5    6 ar
  11    6    7 ar
  12    7    8 ar
  13    8   11 1
  14    9   26 1
  15    9   27 1
  16   10   11 2
  17   10   24 1
  18   12   13 1
  19   12   28 1
  20   12   29 1
  21   13   14 ar
  22   13   18 ar
  23   14   15 ar
  24   14   30 1
  25   15   16 ar
  26   16   17 ar
  27   16   31 1
  28   17   18 ar
  29   17   23 1
  30   18   32 1
  31   19   20 1
  32   19   33 1
  33   19   34 1
  34   20   21 1
  35   20   35 1
  36   20   36 1
  37   21   22 1
  38   21   37 1
  39   21   38 1
  40   22   39 1
  41   22   40 1
  42   22   41 1
  43   24   25 1
  44   25   42 1
  45   25   43 1
  46   25   44 1

#	End of record

