#	Name: ASD08150449
#	Creating user name:	WinNT
#	Creation time:	15. 06. 2019 21:16

#	Modifying user name:	WinNT
#	Modification time:	15. 06. 2019 21:16

#	Program:	/corina/corina34_cracker 3.40 0067  02.08.2006

@<TRIPOS>MOLECULE
ASD08150449
  37   39    0    0    0
SMALL
NO_CHARGES


@<TRIPOS>ATOM
   1 C1            -0.0178     1.4648     0.0101 C.3     
   2 N2             0.0021    -0.0041     0.0020 N.3     
   3 C3            -1.3620    -0.5491     0.0121 C.3     
   4 C4             5.5144     3.5170    -1.4088 C.ar    
   5 N5             4.3375     3.0867    -1.7921 N.ar    
   6 C6             3.3947     2.7311    -0.8892 C.ar    
   7 C7             3.7172     2.8376     0.4655 C.ar    
   8 C8             4.9923     3.3038     0.8246 C.ar    
   9 N9             5.8502     3.6291    -0.1348 N.ar    
  10 C10            2.0912     2.2526    -1.0952 C.2     
  11 C11            1.3960     1.9864    -0.0006 C.2     
  12 S12            2.3459     2.3234     1.4370 S.3     
  13 O13            6.8662     2.8539     4.4514 O.3     
  14 C14            7.0535     4.1014     3.7777 C.3     
  15 C15            6.7227     3.9281     2.2929 C.3     
  16 N16            5.3485     3.4235     2.1580 N.3     
  17 C17            5.1925     2.1424     2.8620 C.3     
  18 C18            5.5386     2.3336     4.3411 C.3     
  19 C19            1.5192     2.0549    -2.4753 C.3     
  20 Cl20           6.6801     3.9497    -2.6202 Cl      
  21 H21           -0.5450     1.8259    -0.8730 H       
  22 H22           -0.5280     1.8163     0.9069 H       
  23 H23            0.5256    -0.3543    -0.7863 H       
  24 H24           -1.3182    -1.6382     0.0058 H       
  25 H25           -1.8815    -0.2116     0.9089 H       
  26 H26           -1.8985    -0.2020    -0.8709 H       
  27 H27            6.3938     4.8524     4.2123 H       
  28 H28            8.0901     4.4209     3.8848 H       
  29 H29            6.8089     4.8893     1.7862 H       
  30 H30            7.4172     3.2168     1.8460 H       
  31 H31            4.1617     1.8000     2.7708 H       
  32 H32            5.8625     1.4025     2.4241 H       
  33 H33            5.4796     1.3745     4.8556 H       
  34 H34            4.8349     3.0332     4.7921 H       
  35 H35            1.7364     1.0429    -2.8171 H       
  36 H36            0.4400     2.2049    -2.4463 H       
  37 H37            1.9677     2.7739    -3.1609 H       
@<TRIPOS>BOND
   1    1    2 1
   2    1   11 1
   3    1   21 1
   4    1   22 1
   5    2    3 1
   6    2   23 1
   7    3   24 1
   8    3   25 1
   9    3   26 1
  10    4    5 ar
  11    4    9 ar
  12    4   20 1
  13    5    6 ar
  14    6    7 ar
  15    6   10 1
  16    7    8 ar
  17    7   12 1
  18    8    9 ar
  19    8   16 1
  20   10   11 2
  21   10   19 1
  22   11   12 1
  23   13   14 1
  24   13   18 1
  25   14   15 1
  26   14   27 1
  27   14   28 1
  28   15   16 1
  29   15   29 1
  30   15   30 1
  31   16   17 1
  32   17   18 1
  33   17   31 1
  34   17   32 1
  35   18   33 1
  36   18   34 1
  37   19   35 1
  38   19   36 1
  39   19   37 1

#	End of record

