#	Name: ASD01881303
#	Creating user name:	WinNT
#	Creation time:	15. 06. 2019 19:42

#	Modifying user name:	WinNT
#	Modification time:	15. 06. 2019 19:42

#	Program:	/corina/corina34_cracker 3.40 0067  02.08.2006

@<TRIPOS>MOLECULE
ASD01881303
  46   48    0    0    0
SMALL
NO_CHARGES


@<TRIPOS>ATOM
   1 C1            -0.0162     1.3398     0.0094 C.2     
   2 N2             0.0021    -0.0041     0.0020 N.am    
   3 C3             1.3976    -0.4572    -0.0137 C.3     
   4 C4             2.2455     0.7903    -0.0151 C.ar    
   5 C5             3.6017     1.0053    -0.0273 C.ar    
   6 C6             4.0981     2.3048    -0.0255 C.ar    
   7 C7             3.2227     3.3847    -0.0109 C.ar    
   8 C8             1.8621     3.1749     0.0014 C.ar    
   9 C9             1.3579     1.8709    -0.0009 C.ar    
  10 O10           -1.0236     2.0205     0.0181 O.2     
  11 O11            5.4382     2.5186    -0.0375 O.3     
  12 C12            5.8783     3.8781    -0.0348 C.3     
  13 C13            8.1156     2.7481    -0.0626 C.ar    
  14 C14            7.3847     3.9185    -0.0494 C.ar    
  15 C15            8.0581     5.1373    -0.0502 C.ar    
  16 C16            9.4508     5.1224    -0.0644 C.ar    
  17 C17           10.1085     3.9099    -0.0770 C.ar    
  18 N18            9.4348     2.7750    -0.0758 N.ar    
  19 O19            7.3747     6.3100    -0.0379 O.3     
  20 C20            8.1481     7.5116    -0.0397 C.3     
  21 C21           -1.1772    -0.8733     0.0093 C.3     
  22 C22           -1.6020    -1.1687    -1.4305 C.3     
  23 C23           -2.8335    -2.0765    -1.4229 C.3     
  24 C24           -3.2583    -2.3719    -2.8627 C.3     
  25 H25            1.6083    -1.0525     0.8747 H       
  26 H26            1.5913    -1.0429    -0.9124 H       
  27 H27            4.2820     0.1666    -0.0380 H       
  28 H28            3.6115     4.3922    -0.0088 H       
  29 H29            1.1852     4.0164     0.0131 H       
  30 H30            5.4926     4.3866    -0.9185 H       
  31 H31            5.5101     4.3774     0.8614 H       
  32 H32            7.6016     1.7983    -0.0576 H       
  33 H33           10.0081     6.0475    -0.0658 H       
  34 H34           11.1882     3.8890    -0.0884 H       
  35 H35            7.4806     8.3733    -0.0291 H       
  36 H36            8.7855     7.5348     0.8442 H       
  37 H37            8.7680     7.5433    -0.9357 H       
  38 H38           -0.9365    -1.8079     0.5161 H       
  39 H39           -1.9925    -0.3751     0.5338 H       
  40 H40           -1.8426    -0.2342    -1.9373 H       
  41 H41           -0.7866    -1.6669    -1.9550 H       
  42 H42           -2.5929    -3.0110    -0.9161 H       
  43 H43           -3.6489    -1.5783    -0.8984 H       
  44 H44           -3.4990    -1.4373    -3.3695 H       
  45 H45           -2.4430    -2.8701    -3.3872 H       
  46 H46           -4.1357    -3.0186    -2.8573 H       
@<TRIPOS>BOND
   1    1    2 am
   2    1    9 1
   3    1   10 2
   4    2    3 1
   5    2   21 1
   6    3    4 1
   7    3   25 1
   8    3   26 1
   9    4    5 ar
  10    4    9 ar
  11    5    6 ar
  12    5   27 1
  13    6    7 ar
  14    6   11 1
  15    7    8 ar
  16    7   28 1
  17    8    9 ar
  18    8   29 1
  19   11   12 1
  20   12   14 1
  21   12   30 1
  22   12   31 1
  23   13   14 ar
  24   13   18 ar
  25   13   32 1
  26   14   15 ar
  27   15   16 ar
  28   15   19 1
  29   16   17 ar
  30   16   33 1
  31   17   18 ar
  32   17   34 1
  33   19   20 1
  34   20   35 1
  35   20   36 1
  36   20   37 1
  37   21   22 1
  38   21   38 1
  39   21   39 1
  40   22   23 1
  41   22   40 1
  42   22   41 1
  43   23   24 1
  44   23   42 1
  45   23   43 1
  46   24   44 1
  47   24   45 1
  48   24   46 1

#	End of record

