#	Name: ASD00170120
#	Creating user name:	WinNT
#	Creation time:	15. 06. 2019 18:31

#	Modifying user name:	WinNT
#	Modification time:	15. 06. 2019 18:31

#	Program:	/corina/corina34_cracker 3.40 0067  02.08.2006

@<TRIPOS>MOLECULE
ASD00170120
  35   38    0    0    0
SMALL
NO_CHARGES


@<TRIPOS>ATOM
   1 C1            -0.0182     1.4914     0.0102 C.2     
   2 C2             0.0021    -0.0041     0.0020 C.ar    
   3 C3             1.3190    -0.4523    -0.0130 C.ar    
   4 C4             2.1958     0.7739    -0.0148 C.3     
   5 C5             1.2473     1.9527     0.0006 C.2     
   6 S6             1.2222     3.7155     0.0098 S.3     
   7 C7            -0.5366     3.6919     0.0263 C.2     
   8 N8            -0.9504     2.4701     0.0195 N.2     
   9 C9            -1.0453    -0.9282     0.0071 C.ar    
  10 C10           -0.7701    -2.2774    -0.0028 C.ar    
  11 C11            0.5516    -2.7230    -0.0174 C.ar    
  12 C12            1.5976    -1.7992    -0.0233 C.ar    
  13 N13           -1.3514     4.8123     0.0397 N.pl3   
  14 C14            0.8449    -4.1767    -0.0266 C.ar    
  15 C15           -0.1981    -5.0998    -0.0208 C.ar    
  16 C16            0.0826    -6.4564    -0.0299 C.ar    
  17 C17            1.4001    -6.8927    -0.0444 C.ar    
  18 C18            2.4359    -5.9769    -0.0502 C.ar    
  19 C19            2.1656    -4.6235    -0.0470 C.ar    
  20 O20           -0.9324    -7.3602    -0.0242 O.3     
  21 C21           -0.5702    -8.7425    -0.0343 C.3     
  22 H22            2.8272     0.7868     0.8736 H       
  23 H23            2.8102     0.7964    -0.9148 H       
  24 H24           -2.0693    -0.5851     0.0190 H       
  25 H25           -1.5796    -2.9924     0.0011 H       
  26 H26            2.6221    -2.1407    -0.0343 H       
  27 H27           -0.9573     5.6986     0.0404 H       
  28 H28           -2.3160     4.7104     0.0483 H       
  29 H29           -1.2228    -4.7589    -0.0088 H       
  30 H30            1.6169    -7.9507    -0.0508 H       
  31 H31            3.4594    -6.3215    -0.0615 H       
  32 H32            2.9769    -3.9106    -0.0519 H       
  33 H33            0.0102    -8.9595    -0.9311 H       
  34 H34            0.0276    -8.9679     0.8488 H       
  35 H35           -1.4722    -9.3545    -0.0284 H       
@<TRIPOS>BOND
   1    1    2 1
   2    1    5 2
   3    1    8 1
   4    2    3 ar
   5    2    9 ar
   6    3    4 1
   7    3   12 ar
   8    4    5 1
   9    4   22 1
  10    4   23 1
  11    5    6 1
  12    6    7 1
  13    7    8 2
  14    7   13 1
  15    9   10 ar
  16    9   24 1
  17   10   11 ar
  18   10   25 1
  19   11   12 ar
  20   11   14 1
  21   12   26 1
  22   13   27 1
  23   13   28 1
  24   14   15 ar
  25   14   19 ar
  26   15   16 ar
  27   15   29 1
  28   16   17 ar
  29   16   20 1
  30   17   18 ar
  31   17   30 1
  32   18   19 ar
  33   18   31 1
  34   19   32 1
  35   20   21 1
  36   21   33 1
  37   21   34 1
  38   21   35 1

#	End of record

