#	Name: ASD01914226
#	Creating user name:	WinNT
#	Creation time:	15. 06. 2019 20:03

#	Modifying user name:	WinNT
#	Modification time:	15. 06. 2019 20:03

#	Program:	/corina/corina34_cracker 3.40 0067  02.08.2006

@<TRIPOS>MOLECULE
ASD01914226
  42   45    0    0    0
SMALL
NO_CHARGES


@<TRIPOS>ATOM
   1 C1            -0.0170     1.4044     0.0098 C.2     
   2 C2             0.0021    -0.0041     0.0020 C.2     
   3 C3             1.1957    -0.6605    -0.0129 C.2     
   4 C4             2.3911     0.0676    -0.0204 C.2     
   5 C5             2.3633     1.4311    -0.0124 C.2     
   6 N6             1.1644     2.1002     0.0022 N.pl3   
   7 N7            -1.0098     2.2831     0.0293 N.2     
   8 C8            -0.5023     3.5177     0.0288 C.2     
   9 C9             0.8462     3.4302     0.0129 C.2     
  10 C10           -1.3002     4.7961     0.0469 C.3     
  11 C11           -2.2892     4.7966    -1.1205 C.3     
  12 C12           -3.0685     6.0453    -1.1027 C.1     
  13 C13           -3.6900     7.0412    -1.0886 C.1     
  14 C14           -4.4482     8.2559    -1.0713 C.ar    
  15 C15           -5.4186     8.4803    -2.0486 C.ar    
  16 C16           -6.1426     9.6588    -2.0183 C.ar    
  17 C17           -5.8739    10.5763    -1.0118 C.ar    
  18 C18           -4.8983    10.2898    -0.0749 C.ar    
  19 N19           -4.2261     9.1578    -0.1222 N.ar    
  20 C20            3.6295     2.1921    -0.0199 C.ar    
  21 C21            4.4832     2.1222    -1.1227 C.ar    
  22 C22            5.6637     2.8357    -1.1232 C.ar    
  23 C23            6.0027     3.6193    -0.0344 C.ar    
  24 C24            5.1616     3.6928     1.0619 C.ar    
  25 C25            3.9753     2.9890     1.0733 C.ar    
  26 H26           -0.9238    -0.5601     0.0082 H       
  27 H27            1.2195    -1.7402    -0.0186 H       
  28 H28            3.3380    -0.4518    -0.0322 H       
  29 H29            1.5423     4.2560     0.0111 H       
  30 H30           -1.8474     4.8695     0.9867 H       
  31 H31           -0.6255     5.6469    -0.0481 H       
  32 H32           -1.7420     4.7232    -2.0603 H       
  33 H33           -2.9639     3.9459    -1.0255 H       
  34 H34           -5.6016     7.7447    -2.8179 H       
  35 H35           -6.8999     9.8607    -2.7614 H       
  36 H36           -6.4218    11.5056    -0.9612 H       
  37 H37           -4.6871    11.0022     0.7089 H       
  38 H38            4.2199     1.5107    -1.9730 H       
  39 H39            6.3251     2.7823    -1.9754 H       
  40 H40            6.9283     4.1759    -0.0400 H       
  41 H41            5.4325     4.3060     1.9086 H       
  42 H42            3.3176     3.0507     1.9277 H       
@<TRIPOS>BOND
   1    1    2 1
   2    1    6 1
   3    1    7 2
   4    2    3 2
   5    2   26 1
   6    3    4 1
   7    3   27 1
   8    4    5 2
   9    4   28 1
  10    5    6 1
  11    5   20 1
  12    6    9 1
  13    7    8 1
  14    8    9 2
  15    8   10 1
  16    9   29 1
  17   10   11 1
  18   10   30 1
  19   10   31 1
  20   11   12 1
  21   11   32 1
  22   11   33 1
  23   12   13 3
  24   13   14 1
  25   14   15 ar
  26   14   19 ar
  27   15   16 ar
  28   15   34 1
  29   16   17 ar
  30   16   35 1
  31   17   18 ar
  32   17   36 1
  33   18   19 ar
  34   18   37 1
  35   20   21 ar
  36   20   25 ar
  37   21   22 ar
  38   21   38 1
  39   22   23 ar
  40   22   39 1
  41   23   24 ar
  42   23   40 1
  43   24   25 ar
  44   24   41 1
  45   25   42 1

#	End of record

