#	Name: ASD01916714
#	Creating user name:	WinNT
#	Creation time:	15. 06. 2019 20:07

#	Modifying user name:	WinNT
#	Modification time:	15. 06. 2019 20:07

#	Program:	/corina/corina34_cracker 3.40 0067  02.08.2006

@<TRIPOS>MOLECULE
ASD01916714
  41   44    0    0    0
SMALL
NO_CHARGES


@<TRIPOS>ATOM
   1 O1            -0.0161     1.3380     0.0094 O.3     
   2 C2             0.0021    -0.0041     0.0020 C.2     
   3 N3             1.2268    -0.4372    -0.0120 N.2     
   4 C4             2.0697     0.6313    -0.0143 C.ar    
   5 C5             1.2614     1.7763    -0.0004 C.ar    
   6 C6             1.8516     3.0424     0.0000 C.ar    
   7 C7             3.2379     3.1555    -0.0133 C.ar    
   8 C8             4.0324     2.0196    -0.0269 C.ar    
   9 C9             3.4597     0.7639    -0.0273 C.ar    
  10 C10           -1.2224    -0.8824     0.0090 C.3     
  11 C11           -1.6231    -1.1874     1.4538 C.3     
  12 C12           -2.8192    -2.0454     1.4606 C.1     
  13 C13           -3.7731    -2.7297     1.4660 C.1     
  14 C14           -4.9367    -3.5644     1.4726 C.ar    
  15 C15           -5.4877    -3.9744     2.6873 C.ar    
  16 C16           -6.6119    -4.7806     2.6769 C.ar    
  17 C17           -7.1503    -5.1518     1.4524 C.ar    
  18 C18           -6.5534    -4.7095     0.2863 C.ar    
  19 N19           -5.4863    -3.9378     0.3228 N.ar    
  20 C20            1.0045     4.2597     0.0142 C.ar    
  21 C21            1.2499     5.2719     0.9403 C.ar    
  22 C22            0.4587     6.4027     0.9485 C.ar    
  23 C23           -0.5763     6.5325     0.0399 C.ar    
  24 C24           -0.8244     5.5310    -0.8815 C.ar    
  25 C25           -0.0363     4.3982    -0.9024 C.ar    
  26 F26            5.3778     2.1427    -0.0398 F       
  27 H27            3.6975     4.1329    -0.0133 H       
  28 H28            4.0863    -0.1157    -0.0376 H       
  29 H29           -2.0413    -0.3683    -0.4943 H       
  30 H30           -1.0039    -1.8146    -0.5120 H       
  31 H31           -0.8043    -1.7016     1.9570 H       
  32 H32           -1.8416    -0.2553     1.9747 H       
  33 H33           -5.0427    -3.6671     3.6221 H       
  34 H34           -7.0606    -5.1141     3.6010 H       
  35 H35           -8.0273    -5.7808     1.4110 H       
  36 H36           -6.9702    -4.9972    -0.6676 H       
  37 H37            2.0574     5.1715     1.6503 H       
  38 H38            0.6477     7.1875     1.6659 H       
  39 H39           -1.1931     7.4189     0.0502 H       
  40 H40           -1.6340     5.6375    -1.5883 H       
  41 H41           -0.2284     3.6188    -1.6248 H       
@<TRIPOS>BOND
   1    1    2 1
   2    1    5 1
   3    2    3 2
   4    2   10 1
   5    3    4 1
   6    4    5 ar
   7    4    9 ar
   8    5    6 ar
   9    6    7 ar
  10    6   20 1
  11    7    8 ar
  12    7   27 1
  13    8    9 ar
  14    8   26 1
  15    9   28 1
  16   10   11 1
  17   10   29 1
  18   10   30 1
  19   11   12 1
  20   11   31 1
  21   11   32 1
  22   12   13 3
  23   13   14 1
  24   14   15 ar
  25   14   19 ar
  26   15   16 ar
  27   15   33 1
  28   16   17 ar
  29   16   34 1
  30   17   18 ar
  31   17   35 1
  32   18   19 ar
  33   18   36 1
  34   20   21 ar
  35   20   25 ar
  36   21   22 ar
  37   21   37 1
  38   22   23 ar
  39   22   38 1
  40   23   24 ar
  41   23   39 1
  42   24   25 ar
  43   24   40 1
  44   25   41 1

#	End of record

