#	Name: ASD05430684
#	Creating user name:	WinNT
#	Creation time:	15. 06. 2019 21:00

#	Modifying user name:	WinNT
#	Modification time:	15. 06. 2019 21:00

#	Program:	/corina/corina34_cracker 3.40 0067  02.08.2006

@<TRIPOS>MOLECULE
ASD05430684
  24   24    0    0    0
SMALL
NO_CHARGES


@<TRIPOS>ATOM
   1 C1            -0.0167     1.3781     0.0096 C.ar    
   2 C2             0.0021    -0.0041     0.0020 C.ar    
   3 C3            -1.1855    -0.7115     0.0095 C.ar    
   4 C4            -2.4105     1.3455     0.0438 C.ar    
   5 C5            -1.2230     2.0529     0.0305 C.ar    
   6 C6             1.2780     2.1493     0.0014 C.3     
   7 C7            -2.3919    -0.0367     0.0251 C.ar    
   8 C8             2.0733     1.7974    -1.2574 C.3     
   9 C9             0.9781     3.6496     0.0123 C.3     
  10 C10            2.0972     1.7840     1.2409 C.3     
  11 H11            0.9446    -0.5313    -0.0101 H       
  12 H12           -1.1709    -1.7913     0.0029 H       
  13 H13           -3.3530     1.8727     0.0601 H       
  14 H14           -1.2375     3.1327     0.0451 H       
  15 H15           -3.3197    -0.5894     0.0355 H       
  16 H16            1.4897     2.0577    -2.1405 H       
  17 H17            3.0098     2.3552    -1.2633 H       
  18 H18            2.2870     0.7285    -1.2652 H       
  19 H19            0.4115     3.9003     0.9091 H       
  20 H20            1.9145     4.2074     0.0064 H       
  21 H21            0.3945     3.9099    -0.8707 H       
  22 H22            2.3108     0.7151     1.2331 H       
  23 H23            3.0336     2.3417     1.2350 H       
  24 H24            1.5306     2.0347     2.1377 H       
@<TRIPOS>BOND
   1    1    2 ar
   2    1    6 1
   3    1    5 ar
   4    2    3 ar
   5    2   11 1
   6    3    7 ar
   7    3   12 1
   8    4    5 ar
   9    4    7 ar
  10    4   13 1
  11    5   14 1
  12    6    8 1
  13    6    9 1
  14    6   10 1
  15    7   15 1
  16    8   16 1
  17    8   17 1
  18    8   18 1
  19    9   19 1
  20    9   20 1
  21    9   21 1
  22   10   22 1
  23   10   23 1
  24   10   24 1

#	End of record

