#	Name: ASD04880025
#	Creating user name:	WinNT
#	Creation time:	15. 06. 2019 20:52

#	Modifying user name:	WinNT
#	Modification time:	15. 06. 2019 20:52

#	Program:	/corina/corina34_cracker 3.40 0067  02.08.2006

@<TRIPOS>MOLECULE
ASD04880025
  78   83    0    0    0
SMALL
NO_CHARGES


@<TRIPOS>ATOM
   1 C1             0.0635     1.2548    -0.0075 C.ar    
   2 C2            -0.1041    -0.1098    -0.2108 C.ar    
   3 C3            -1.3667    -0.6608    -0.2011 C.ar    
   4 C4            -2.4832     0.1515     0.0134 C.ar    
   5 C5            -2.3174     1.5246     0.2181 C.ar    
   6 C6            -1.0489     2.0725     0.2129 C.ar    
   7 N7            -0.8784     3.4477     0.4181 N.am    
   8 C8            -1.7982     4.3173    -0.0448 C.2     
   9 C9            -1.5703     5.7605     0.0789 C.2     
  10 O10           -2.8179     3.9046    -0.5656 O.2     
  11 N11            1.3416     1.8074    -0.0177 N.3     
  12 C12            1.5175     2.7065    -1.1668 C.3     
  13 C13            2.3695     0.7572    -0.0121 C.3     
  14 C14            3.7551     1.4037     0.0567 C.3     
  15 N15            3.9310     2.3027    -1.0924 N.3     
  16 C16            2.9031     3.3529    -1.0979 C.3     
  17 C17            5.2130     2.8570    -1.1026 C.ar    
  18 C18            6.0582     2.6363    -2.1824 C.ar    
  19 C19            5.6436     3.6351    -0.0351 C.ar    
  20 C20            6.9116     4.1816    -0.0484 C.ar    
  21 C21            7.7526     3.9555    -1.1229 C.ar    
  22 C22            7.3253     3.1859    -2.1892 C.ar    
  23 C23            5.5934     1.7977    -3.3450 C.3     
  24 C24           -3.8352    -0.4387     0.0232 C.2     
  25 C25           -2.4155     6.7456    -0.3455 C.2     
  26 C26           -1.8028     7.9677    -0.0273 C.2     
  27 C27           -0.6254     7.6788     0.5697 C.2     
  28 O28           -0.4916     6.3478     0.6371 O.3     
  29 O29           -4.7818     0.2030    -0.3899 O.2     
  30 N30           -4.0212    -1.6893     0.4902 N.am    
  31 C31           -5.3379    -2.3346     0.3982 C.3     
  32 C32           -5.7461    -2.8228     1.7917 C.3     
  33 C33           -4.6437    -3.7218     2.3561 C.3     
  34 C34           -3.3463    -2.9204     2.4859 C.3     
  35 C35           -2.9095    -2.4354     1.0953 C.3     
  36 N36           -5.0453    -4.2172     3.6750 N.am    
  37 C37           -5.3196    -3.4301     4.7296 C.2     
  38 C38           -5.2061    -5.6363     4.0128 C.3     
  39 C39           -5.1991    -5.6959     5.5564 C.3     
  40 C40           -5.6897    -4.2761     5.9279 C.3     
  41 O41           -5.2760    -2.2181     4.7218 O.2     
  42 H42            0.7573    -0.7396    -0.3771 H       
  43 H43           -1.4937    -1.7215    -0.3597 H       
  44 H44           -3.1785     2.1550     0.3838 H       
  45 H45           -0.0983     3.7741     0.8934 H       
  46 H46            1.4277     2.1365    -2.0915 H       
  47 H47            0.7525     3.4825    -1.1418 H       
  48 H48            2.2257     0.1122     0.8547 H       
  49 H49            2.2894     0.1651    -0.9238 H       
  50 H50            3.8449     1.9736     0.9815 H       
  51 H51            4.5201     0.6276     0.0317 H       
  52 H52            3.0469     3.9980    -1.9647 H       
  53 H53            2.9832     3.9450    -0.1863 H       
  54 H54            4.9871     3.8127     0.8039 H       
  55 H55            7.2469     4.7866     0.7810 H       
  56 H56            8.7436     4.3847    -1.1311 H       
  57 H57            7.9845     3.0113    -3.0267 H       
  58 H58            5.1133     2.4374    -4.0855 H       
  59 H59            6.4497     1.2975    -3.7975 H       
  60 H60            4.8811     1.0515    -2.9930 H       
  61 H61           -3.3702     6.6105    -0.8320 H       
  62 H62           -2.1980     8.9536    -0.2229 H       
  63 H63            0.0882     8.4020     0.9359 H       
  64 H64           -6.0721    -1.6165     0.0330 H       
  65 H65           -5.2824    -3.1827    -0.2843 H       
  66 H66           -5.8894    -1.9659     2.4499 H       
  67 H67           -6.6757    -3.3877     1.7214 H       
  68 H68           -4.4837    -4.5654     1.6848 H       
  69 H69           -3.5122    -2.0626     3.1376 H       
  70 H70           -2.5678    -3.5547     2.9098 H       
  71 H71           -2.6560    -3.2931     0.4721 H       
  72 H72           -2.0423    -1.7822     1.1918 H       
  73 H73           -6.1532    -6.0114     3.6251 H       
  74 H74           -4.3762    -6.2165     3.6092 H       
  75 H75           -5.8923    -6.4542     5.9207 H       
  76 H76           -4.1930    -5.8751     5.9354 H       
  77 H77           -5.1782    -3.9173     6.8210 H       
  78 H78           -6.7693    -4.2727     6.0781 H       
@<TRIPOS>BOND
   1    1    2 ar
   2    1   11 1
   3    1    6 ar
   4    2    3 ar
   5    2   42 1
   6    3    4 ar
   7    3   43 1
   8    4    5 ar
   9    4   24 1
  10    5    6 ar
  11    5   44 1
  12    6    7 1
  13    7    8 am
  14    7   45 1
  15    8    9 1
  16    8   10 2
  17    9   25 2
  18    9   28 1
  19   11   12 1
  20   11   13 1
  21   12   16 1
  22   12   46 1
  23   12   47 1
  24   13   14 1
  25   13   48 1
  26   13   49 1
  27   14   15 1
  28   14   50 1
  29   14   51 1
  30   15   16 1
  31   15   17 1
  32   16   52 1
  33   16   53 1
  34   17   18 ar
  35   17   19 ar
  36   18   23 1
  37   18   22 ar
  38   19   20 ar
  39   19   54 1
  40   20   21 ar
  41   20   55 1
  42   21   22 ar
  43   21   56 1
  44   22   57 1
  45   23   58 1
  46   23   59 1
  47   23   60 1
  48   24   29 2
  49   24   30 am
  50   25   26 1
  51   25   61 1
  52   26   27 2
  53   26   62 1
  54   27   28 1
  55   27   63 1
  56   30   31 1
  57   30   35 1
  58   31   32 1
  59   31   64 1
  60   31   65 1
  61   32   33 1
  62   32   66 1
  63   32   67 1
  64   33   34 1
  65   33   36 1
  66   33   68 1
  67   34   35 1
  68   34   69 1
  69   34   70 1
  70   35   71 1
  71   35   72 1
  72   36   37 am
  73   36   38 1
  74   37   41 2
  75   37   40 1
  76   38   39 1
  77   38   73 1
  78   38   74 1
  79   39   40 1
  80   39   75 1
  81   39   76 1
  82   40   77 1
  83   40   78 1

#	End of record

