#	Name: ASD00191024
#	Creating user name:	WinNT
#	Creation time:	15. 06. 2019 18:33

#	Modifying user name:	WinNT
#	Modification time:	15. 06. 2019 18:33

#	Program:	/corina/corina34_cracker 3.40 0067  02.08.2006

@<TRIPOS>MOLECULE
ASD00191024
  48   52    0    0    0
SMALL
NO_CHARGES


@<TRIPOS>ATOM
   1 C1            -0.0142     1.3576     0.0077 C.ar    
   2 C2             0.0049    -0.0052    -0.0071 C.ar    
   3 C3             1.2068    -0.7047    -0.0361 C.ar    
   4 C4             2.3990    -0.0413    -0.0506 C.ar    
   5 C5             2.4137     1.3571    -0.0365 C.ar    
   6 C6             1.1925     2.0734    -0.0069 C.ar    
   7 C7             3.6588     2.1125    -0.0505 C.ar    
   8 C8             3.5789     3.5085    -0.0344 C.ar    
   9 C9             2.3057     4.1210    -0.0050 C.ar    
  10 N10            1.1984     3.4146     0.0076 N.ar    
  11 N11            4.9900     1.8002    -0.0778 N.pl3   
  12 C12            5.6815     2.9726    -0.0778 C.2     
  13 N13            4.8504     3.9750    -0.0523 N.2     
  14 C14            7.1835     3.0927    -0.1028 C.3     
  15 C15            7.7269     2.9934     1.3240 C.3     
  16 C16            9.2518     3.1153     1.2986 C.3     
  17 C17            9.8396     1.9866     0.4492 C.3     
  18 C18            9.2962     2.0860    -0.9776 C.3     
  19 C19            7.7713     1.9641    -0.9522 C.3     
  20 N20            2.2231     5.5041     0.0111 N.pl3   
  21 C21            0.9774     6.1309    -0.0796 C.ar    
  22 C22            0.7433     7.3157     0.6063 C.ar    
  23 C23           -0.4904     7.9347     0.5146 C.ar    
  24 C24           -1.4919     7.3736    -0.2599 C.ar    
  25 C25           -1.2608     6.1923    -0.9446 C.ar    
  26 C26           -0.0267     5.5730    -0.8604 C.ar    
  27 F27           -0.7186     9.0872     1.1816 F       
  28 F28           -2.2396     5.6471    -1.6995 F       
  29 H29           -0.9563     1.8854     0.0261 H       
  30 H30           -0.9274    -0.5502     0.0043 H       
  31 H31            1.1962    -1.7846    -0.0470 H       
  32 H32            3.3269    -0.5935    -0.0724 H       
  33 H33            5.3709     0.9082    -0.0938 H       
  34 H34            7.4640     4.0545    -0.5323 H       
  35 H35            7.3081     3.7974     1.9291 H       
  36 H36            7.4464     2.0316     1.7534 H       
  37 H37            9.5323     4.0771     0.8692 H       
  38 H38            9.6389     3.0445     2.3151 H       
  39 H39           10.9260     2.0735     0.4312 H       
  40 H40            9.5591     1.0249     0.8787 H       
  41 H41            9.5767     3.0478    -1.4070 H       
  42 H42            9.7150     1.2819    -1.5827 H       
  43 H43            7.4908     1.0023    -0.5228 H       
  44 H44            7.3842     2.0349    -1.9687 H       
  45 H45            3.0301     6.0373     0.0854 H       
  46 H46            1.5239     7.7533     1.2110 H       
  47 H47           -2.4547     7.8578    -0.3297 H       
  48 H48            0.1533     4.6519    -1.3948 H       
@<TRIPOS>BOND
   1    1    2 ar
   2    1    6 ar
   3    1   29 1
   4    2    3 ar
   5    2   30 1
   6    3    4 ar
   7    3   31 1
   8    4    5 ar
   9    4   32 1
  10    5    6 ar
  11    5    7 ar
  12    6   10 ar
  13    7    8 ar
  14    7   11 1
  15    8    9 ar
  16    8   13 1
  17    9   10 ar
  18    9   20 1
  19   11   12 1
  20   11   33 1
  21   12   13 2
  22   12   14 1
  23   14   15 1
  24   14   19 1
  25   14   34 1
  26   15   16 1
  27   15   35 1
  28   15   36 1
  29   16   17 1
  30   16   37 1
  31   16   38 1
  32   17   18 1
  33   17   39 1
  34   17   40 1
  35   18   19 1
  36   18   41 1
  37   18   42 1
  38   19   43 1
  39   19   44 1
  40   20   21 1
  41   20   45 1
  42   21   22 ar
  43   21   26 ar
  44   22   23 ar
  45   22   46 1
  46   23   24 ar
  47   23   27 1
  48   24   25 ar
  49   24   47 1
  50   25   26 ar
  51   25   28 1
  52   26   48 1

#	End of record

