#	Name: ASD06152007
#	Creating user name:	WinNT
#	Creation time:	15. 06. 2019 21:05

#	Modifying user name:	WinNT
#	Modification time:	15. 06. 2019 21:05

#	Program:	/corina/corina34_cracker 3.40 0067  02.08.2006

@<TRIPOS>MOLECULE
ASD06152007
  59   62    0    0    0
SMALL
NO_CHARGES


@<TRIPOS>ATOM
   1 C1            -0.3898     1.7260     0.9012 C.2     
   2 C2            -0.2050     0.3876     0.7728 C.2     
   3 C3            -1.3531    -0.5171     0.5802 C.2     
   4 C4            -2.7299     0.0393     0.5254 C.ar    
   5 C5            -2.9132     1.4255     0.6591 C.ar    
   6 C6            -1.7412     2.3051     0.8567 C.2     
   7 N7            -3.7688    -0.7586     0.3528 N.ar    
   8 C8            -5.0079    -0.2853     0.3002 C.ar    
   9 C9            -5.2630     1.0808     0.4257 C.ar    
  10 C10           -4.2032     1.9544     0.6086 C.ar    
  11 O11           -1.8934     3.5057     0.9734 O.2     
  12 O12           -1.1741    -1.7130     0.4663 O.2     
  13 N13            1.0798    -0.1354     0.8231 N.pl3   
  14 C14           -6.1382    -1.2227     0.1045 C.ar    
  15 C15           -5.9275    -2.4328    -0.5742 C.ar    
  16 C16           -7.0104    -3.3111    -0.7510 C.ar    
  17 C17           -8.2532    -2.9384    -0.2409 C.ar    
  18 C18           -8.3788    -1.7172     0.4218 C.ar    
  19 N19           -7.3348    -0.9131     0.5760 N.ar    
  20 N20           -4.6718    -2.7564    -1.0627 N.pl3   
  21 C21           -9.4469    -3.8437    -0.4038 C.3     
  22 C22           -6.8358    -4.5999    -1.4616 C.ar    
  23 C23           -7.0215    -4.6677    -2.8456 C.ar    
  24 C24           -6.8564    -5.8781    -3.5048 C.ar    
  25 C25           -6.5076    -7.0169    -2.7877 C.ar    
  26 C26           -6.3238    -6.9469    -1.4134 C.ar    
  27 C27           -6.4804    -5.7467    -0.7523 C.ar    
  28 O28           -7.3629    -3.5522    -3.5434 O.3     
  29 C29           -9.6935    -1.3155     0.9646 C.2     
  30 O30          -10.6682    -2.0152     0.7754 O.2     
  31 O31           -9.8108    -0.1733     1.6693 O.3     
  32 O32           -7.0362    -5.9500    -4.8519 O.3     
  33 C33           -5.8896    -5.7188    -5.6728 C.3     
  34 O34           -6.3464    -8.2022    -3.4338 O.3     
  35 C35           -5.9878    -9.3324    -2.6363 C.3     
  36 O36            0.6834     2.5382     1.0781 O.3     
  37 C37            0.9777     3.4622     0.0285 C.3     
  38 H38           -6.2758     1.4532     0.3808 H       
  39 H39           -4.3712     3.0165     0.7091 H       
  40 H40            1.8440     0.4597     0.8757 H       
  41 H41            1.2134    -1.0960     0.8055 H       
  42 H42           -3.9167    -2.1744    -0.8832 H       
  43 H43           -4.5478    -3.5648    -1.5842 H       
  44 H44           -9.5814    -4.4342     0.5024 H       
  45 H45          -10.3381    -3.2415    -0.5807 H       
  46 H46           -9.2845    -4.5100    -1.2510 H       
  47 H47           -6.0532    -7.8345    -0.8607 H       
  48 H48           -6.3362    -5.6967     0.3169 H       
  49 H49           -6.6067    -3.0451    -3.8690 H       
  50 H50          -10.6906     0.0475     2.0041 H       
  51 H51           -6.1707    -5.8057    -6.7223 H       
  52 H52           -5.5020    -4.7181    -5.4821 H       
  53 H53           -5.1215    -6.4564    -5.4401 H       
  54 H54           -5.0378    -9.1388    -2.1382 H       
  55 H55           -6.7608    -9.5092    -1.8884 H       
  56 H56           -5.8914   -10.2112    -3.2739 H       
  57 H57            1.0853     2.9216    -0.9119 H       
  58 H58            0.1657     4.1842    -0.0583 H       
  59 H59            1.9066     3.9856     0.2550 H       
@<TRIPOS>BOND
   1    1    2 2
   2    1   36 1
   3    1    6 1
   4    2    3 1
   5    2   13 1
   6    3    4 1
   7    3   12 2
   8    4    5 ar
   9    4    7 ar
  10    5    6 1
  11    5   10 ar
  12    6   11 2
  13    7    8 ar
  14    8    9 ar
  15    8   14 1
  16    9   10 ar
  17    9   38 1
  18   10   39 1
  19   13   40 1
  20   13   41 1
  21   14   15 ar
  22   14   19 ar
  23   15   16 ar
  24   15   20 1
  25   16   17 ar
  26   16   22 1
  27   17   18 ar
  28   17   21 1
  29   18   19 ar
  30   18   29 1
  31   20   42 1
  32   20   43 1
  33   21   44 1
  34   21   45 1
  35   21   46 1
  36   22   23 ar
  37   22   27 ar
  38   23   24 ar
  39   23   28 1
  40   24   25 ar
  41   24   32 1
  42   25   26 ar
  43   25   34 1
  44   26   27 ar
  45   26   47 1
  46   27   48 1
  47   28   49 1
  48   29   30 2
  49   29   31 1
  50   31   50 1
  51   32   33 1
  52   33   51 1
  53   33   52 1
  54   33   53 1
  55   34   35 1
  56   35   54 1
  57   35   55 1
  58   35   56 1
  59   36   37 1
  60   37   57 1
  61   37   58 1
  62   37   59 1

#	End of record

