#	Name: ASD03241002
#	Creating user name:	WinNT
#	Creation time:	15. 06. 2019 20:35

#	Modifying user name:	WinNT
#	Modification time:	15. 06. 2019 20:35

#	Program:	/corina/corina34_cracker 3.40 0067  02.08.2006

@<TRIPOS>MOLECULE
ASD03241002
  61   66    0    0    0
SMALL
NO_CHARGES


@<TRIPOS>ATOM
   1 C1             0.1011     0.5683    -2.2149 C.3     
   2 C2             1.4517     0.7838    -1.5117 C.3     
   3 C3             0.9746    -0.2281    -0.4566 C.3     
   4 C4             0.0633    -0.8163    -1.5468 C.3     
   5 O5            -0.9274     1.4508    -1.7617 O.3     
   6 C6             0.2066     0.5102    -3.7401 C.3     
   7 C7             2.0535    -1.1744     0.0036 C.ar    
   8 C8             2.0201    -1.6842     1.2893 C.ar    
   9 C9             3.0047    -2.5513     1.7164 C.ar    
  10 C10            4.0353    -2.9137     0.8488 C.ar    
  11 C11            4.0633    -2.3961    -0.4464 C.ar    
  12 C12            3.0700    -1.5340    -0.8633 C.ar    
  13 N13            6.8552    -6.7188     0.1296 N.pl3   
  14 C14            7.8384    -7.5601     0.5801 C.2     
  15 N15            8.4139    -7.3992     1.7849 N.2     
  16 C16            8.0712    -6.4339     2.5966 C.2     
  17 C17            7.0265    -5.4941     2.1864 C.ar    
  18 N18            6.6414    -4.4953     2.9760 N.ar    
  19 C19            5.6921    -3.6666     2.5673 C.ar    
  20 C20            5.0953    -3.8433     1.3009 C.ar    
  21 N21            5.4805    -4.8403     0.5136 N.ar    
  22 C22            6.4283    -5.6701     0.9198 C.ar    
  23 C23            8.0532    -8.5016    -0.4143 C.2     
  24 C24            7.1806    -8.2103    -1.4709 C.2     
  25 N25            6.4633    -7.1511    -1.1434 N.2     
  26 C26            5.2570    -2.5517     3.4411 C.ar    
  27 C27            5.0166    -2.7771     4.7960 C.ar    
  28 C28            4.6120    -1.7348     5.6048 C.ar    
  29 C29            4.4448    -0.4683     5.0739 C.ar    
  30 C30            4.6813    -0.2388     3.7303 C.ar    
  31 C31            5.0918    -1.2719     2.9128 C.ar    
  32 C32            7.0763    -8.9656    -2.7378 C.2     
  33 C33            7.8520   -10.0198    -2.9465 C.2     
  34 C34            6.0881    -8.5368    -3.7915 C.3     
  35 N35            0.2392     0.3856     0.6571 N.3     
  36 H36            2.3066     0.4382    -2.0930 H       
  37 H37            1.5844     1.7925    -1.1207 H       
  38 H38           -0.9248    -1.0992    -1.1841 H       
  39 H39            0.5387    -1.5992    -2.1376 H       
  40 H40           -1.7792     1.3202    -2.2002 H       
  41 H41            0.8585    -0.3145    -4.0281 H       
  42 H42           -0.7843     0.3564    -4.1673 H       
  43 H43            0.6209     1.4475    -4.1116 H       
  44 H44            1.2219    -1.4027     1.9601 H       
  45 H45            2.9778    -2.9484     2.7204 H       
  46 H46            4.8586    -2.6729    -1.1227 H       
  47 H47            3.0883    -1.1358    -1.8671 H       
  48 H48            8.5520    -6.3313     3.5582 H       
  49 H49            8.7651    -9.3131    -0.3807 H       
  50 H50            5.1465    -3.7655     5.2115 H       
  51 H51            4.4252    -1.9082     6.6543 H       
  52 H52            4.1280     0.3443     5.7108 H       
  53 H53            4.5484     0.7519     3.3213 H       
  54 H54            5.2805    -1.0905     1.8650 H       
  55 H55            8.5603   -10.3272    -2.1913 H       
  56 H56            7.7759   -10.5715    -3.8719 H       
  57 H57            6.5630    -7.8252    -4.4669 H       
  58 H58            5.7577    -9.4087    -4.3561 H       
  59 H59            5.2287    -8.0663    -3.3138 H       
  60 H60           -0.0546    -0.3119     1.3244 H       
  61 H61            0.7910     1.1030     1.1031 H       
@<TRIPOS>BOND
   1    1    2 1
   2    1    4 1
   3    1    5 1
   4    1    6 1
   5    2    3 1
   6    2   36 1
   7    2   37 1
   8    3    4 1
   9    3    7 1
  10    3   35 1
  11    4   38 1
  12    4   39 1
  13    5   40 1
  14    6   41 1
  15    6   42 1
  16    6   43 1
  17    7    8 ar
  18    7   12 ar
  19    8    9 ar
  20    8   44 1
  21    9   10 ar
  22    9   45 1
  23   10   11 ar
  24   10   20 1
  25   11   12 ar
  26   11   46 1
  27   12   47 1
  28   13   14 1
  29   13   22 1
  30   13   25 1
  31   14   15 1
  32   14   23 2
  33   15   16 2
  34   16   17 1
  35   16   48 1
  36   17   18 ar
  37   17   22 ar
  38   18   19 ar
  39   19   20 ar
  40   19   26 1
  41   20   21 ar
  42   21   22 ar
  43   23   24 1
  44   23   49 1
  45   24   25 2
  46   24   32 1
  47   26   27 ar
  48   26   31 ar
  49   27   28 ar
  50   27   50 1
  51   28   29 ar
  52   28   51 1
  53   29   30 ar
  54   29   52 1
  55   30   31 ar
  56   30   53 1
  57   31   54 1
  58   32   33 2
  59   32   34 1
  60   33   55 1
  61   33   56 1
  62   34   57 1
  63   34   58 1
  64   34   59 1
  65   35   60 1
  66   35   61 1

#	End of record

