#	Name: ASD00100054
#	Creating user name:	WinNT
#	Creation time:	15. 06. 2019 18:30

#	Modifying user name:	WinNT
#	Modification time:	15. 06. 2019 18:30

#	Program:	/corina/corina34_cracker 3.40 0067  02.08.2006

@<TRIPOS>MOLECULE
ASD00100054
  61   64    0    0    0
SMALL
NO_CHARGES


@<TRIPOS>ATOM
   1 C1            -0.0173     1.4278     0.0099 C.2     
   2 C2             0.0021    -0.0041     0.0020 C.1     
   3 C3             0.0180    -1.1779    -0.0044 C.1     
   4 C4             0.0380    -2.6498    -0.0125 C.3     
   5 O5             1.0275     2.0501     0.0033 O.2     
   6 N6            -1.1936     2.0857     0.0190 N.am    
   7 C7            -1.2134     3.5506     0.0271 C.3     
   8 C8            -2.5305     4.0461    -0.5736 C.3     
   9 C9            -2.5512     5.5759    -0.5652 C.3     
  10 C10           -2.4256     6.0797     0.8740 C.3     
  11 C11           -1.1086     5.5842     1.4747 C.3     
  12 C12           -1.0878     4.0544     1.4663 C.3     
  13 C13           -2.4464     7.6096     0.8824 C.3     
  14 C14           -2.4464     8.1117     2.3277 C.3     
  15 N15           -2.4664     9.5805     2.3358 N.3     
  16 C16           -2.7051    10.0961     3.6898 C.3     
  17 C17           -2.8642    11.6173     3.6372 C.3     
  18 C18           -1.5934    12.2385     3.0510 C.3     
  19 C19           -1.3409    11.6489     1.6607 C.3     
  20 C20           -1.2259    10.1268     1.7706 C.3     
  21 O21           -2.5436    15.7110     2.3726 O.3     
  22 C22           -2.6979    14.3830     2.2308 C.2     
  23 C23           -1.7671    13.7314     2.9410 C.2     
  24 C24           -0.9509    14.7641     3.5906 C.ar    
  25 C25           -1.5031    15.9904     3.1834 C.ar    
  26 C26            0.1507    14.7414     4.4442 C.ar    
  27 C27            0.6942    15.9278     4.8856 C.ar    
  28 C28            0.1496    17.1387     4.4840 C.ar    
  29 C29           -0.9400    17.1749     3.6401 C.ar    
  30 H30           -0.9846    -3.0271    -0.0048 H       
  31 H31            0.5481    -3.0013    -0.9093 H       
  32 H32            0.5651    -3.0109     0.8705 H       
  33 H33           -2.0269     1.5894     0.0203 H       
  34 H34           -0.3794     3.9285    -0.5643 H       
  35 H35           -2.6199     3.6871    -1.5989 H       
  36 H36           -3.3645     3.6681     0.0178 H       
  37 H37           -1.7172     5.9538    -1.1565 H       
  38 H38           -3.4895     5.9289    -0.9931 H       
  39 H39           -3.2596     5.7018     1.4654 H       
  40 H40           -0.2746     5.9622     0.8833 H       
  41 H41           -1.0191     5.9432     2.5000 H       
  42 H42           -1.9218     3.6765     2.0577 H       
  43 H43           -0.1496     3.7014     1.8942 H       
  44 H44           -1.5638     7.9878     0.3664 H       
  45 H45           -3.3436     7.9636     0.3748 H       
  46 H46           -3.3290     7.7335     2.8437 H       
  47 H47           -1.5492     7.7577     2.8353 H       
  48 H48           -3.6139     9.6497     4.0934 H       
  49 H49           -1.8603     9.8413     4.3297 H       
  50 H50           -3.7173    11.8724     3.0085 H       
  51 H51           -3.0259    12.0014     4.6444 H       
  52 H52           -0.7464    12.0163     3.7002 H       
  53 H53           -2.1700    11.9045     1.0009 H       
  54 H54           -0.4141    12.0555     1.2558 H       
  55 H55           -0.3881     9.8717     2.4195 H       
  56 H56           -1.0604     9.7026     0.7803 H       
  57 H57           -3.4615    13.9099     1.6312 H       
  58 H58            0.5755    13.7993     4.7579 H       
  59 H59            1.5476    15.9150     5.5474 H       
  60 H60            0.5834    18.0628     4.8365 H       
  61 H61           -1.3552    18.1238     3.3342 H       
@<TRIPOS>BOND
   1    1    2 1
   2    1    5 2
   3    1    6 am
   4    2    3 3
   5    3    4 1
   6    4   30 1
   7    4   31 1
   8    4   32 1
   9    6    7 1
  10    6   33 1
  11    7    8 1
  12    7   12 1
  13    7   34 1
  14    8    9 1
  15    8   35 1
  16    8   36 1
  17    9   10 1
  18    9   37 1
  19    9   38 1
  20   10   11 1
  21   10   13 1
  22   10   39 1
  23   11   12 1
  24   11   40 1
  25   11   41 1
  26   12   42 1
  27   12   43 1
  28   13   14 1
  29   13   44 1
  30   13   45 1
  31   14   15 1
  32   14   46 1
  33   14   47 1
  34   15   16 1
  35   15   20 1
  36   16   17 1
  37   16   48 1
  38   16   49 1
  39   17   18 1
  40   17   50 1
  41   17   51 1
  42   18   19 1
  43   18   23 1
  44   18   52 1
  45   19   20 1
  46   19   53 1
  47   19   54 1
  48   20   55 1
  49   20   56 1
  50   21   22 1
  51   21   25 1
  52   22   23 2
  53   22   57 1
  54   23   24 1
  55   24   25 ar
  56   24   26 ar
  57   25   29 ar
  58   26   27 ar
  59   26   58 1
  60   27   28 ar
  61   27   59 1
  62   28   29 ar
  63   28   60 1
  64   29   61 1

#	End of record

