#	Name: ASD01917975
#	Creating user name:	WinNT
#	Creation time:	15. 06. 2019 20:10

#	Modifying user name:	WinNT
#	Modification time:	15. 06. 2019 20:10

#	Program:	/corina/corina34_cracker 3.40 0067  02.08.2006

@<TRIPOS>MOLECULE
ASD01917975
  37   40    0    0    0
SMALL
NO_CHARGES


@<TRIPOS>ATOM
   1 N1             4.8222    -0.4085    -2.1625 N.ar    
   2 C2             5.2888     0.2928    -3.1772 C.ar    
   3 C3             5.1772     1.6703    -3.1987 C.ar    
   4 C4             4.5651     2.3162    -2.1365 C.ar    
   5 C5             4.0839     1.5456    -1.0828 C.ar    
   6 C6             4.2336     0.1669    -1.1331 C.ar    
   7 O7             3.4768     2.1347    -0.0193 O.3     
   8 C8             3.4585     3.4936     0.0335 C.2     
   9 N9             2.2090     5.5074    -0.0265 N.pl3   
  10 C10            2.2761     4.1516    -0.0741 C.2     
  11 C11            4.6587     4.1940     0.2038 C.2     
  12 C12            4.6317     5.5832     0.2572 C.2     
  13 C13            3.3396     6.2574     0.1321 C.2     
  14 C14            5.8724     6.3561     0.4357 C.2     
  15 N15            5.8265     7.7021     0.4852 N.am    
  16 C16            6.9967     8.4310     0.6535 C.2     
  17 O17            6.9385     5.7796     0.5385 O.2     
  18 N18            1.1467     6.4194    -0.1098 N.2     
  19 C19            1.6624     7.6216    -0.0104 C.2     
  20 N20            2.9775     7.5305     0.1412 N.2     
  21 S21            8.5585     7.7535     0.8103 S.3     
  22 C22            9.2544     9.3652     0.9582 C.2     
  23 C23            8.2619    10.2535     0.8773 C.2     
  24 N24            7.0643     9.7246     0.7091 N.2     
  25 C25            8.4905    11.7405     0.9654 C.3     
  26 H26            5.7648    -0.2160    -4.0023 H       
  27 H27            5.5628     2.2367    -4.0336 H       
  28 H28            4.4645     3.3915    -2.1266 H       
  29 H29            3.8637    -0.4409    -0.3205 H       
  30 H30            1.3665     3.5833    -0.2009 H       
  31 H31            5.5941     3.6617     0.2929 H       
  32 H32            4.9763     8.1618     0.4032 H       
  33 H33            1.1014     8.5440    -0.0391 H       
  34 H34           10.3014     9.5943     1.0912 H       
  35 H35            8.6663    12.1408    -0.0331 H       
  36 H36            7.6118    12.2181     1.3989 H       
  37 H37            9.3587    11.9379     1.5941 H       
@<TRIPOS>BOND
   1    1    2 ar
   2    1    6 ar
   3    2    3 ar
   4    2   26 1
   5    3    4 ar
   6    3   27 1
   7    4    5 ar
   8    4   28 1
   9    5    6 ar
  10    5    7 1
  11    6   29 1
  12    7    8 1
  13    8   11 1
  14    8   10 2
  15    9   10 1
  16    9   18 1
  17    9   13 1
  18   10   30 1
  19   11   12 2
  20   11   31 1
  21   12   13 1
  22   12   14 1
  23   13   20 2
  24   14   15 am
  25   14   17 2
  26   15   16 1
  27   15   32 1
  28   16   21 1
  29   16   24 2
  30   18   19 2
  31   19   20 1
  32   19   33 1
  33   21   22 1
  34   22   23 2
  35   22   34 1
  36   23   24 1
  37   23   25 1
  38   25   35 1
  39   25   36 1
  40   25   37 1

#	End of record

