#	Name: ASD01883980
#	Creating user name:	WinNT
#	Creation time:	15. 06. 2019 19:47

#	Modifying user name:	WinNT
#	Modification time:	15. 06. 2019 19:47

#	Program:	/corina/corina34_cracker 3.40 0067  02.08.2006

@<TRIPOS>MOLECULE
ASD01883980
  44   46    0    0    0
SMALL
NO_CHARGES


@<TRIPOS>ATOM
   1 C1            -0.0184     1.5028     0.0103 C.3     
   2 C2             0.0021    -0.0041     0.0020 C.2     
   3 C3             0.0086    -0.8109    -1.0956 C.2     
   4 N4             0.0238    -2.0980    -0.6618 N.2     
   5 C5             0.0234    -2.1119     0.6533 C.2     
   6 O6             0.0184    -2.9927     1.6889 O.3     
   7 C7             0.4509    -2.2971     2.8723 C.3     
   8 H8             1.5308    -2.3777     2.9968 H       
   9 C9            -0.2783    -2.8230     4.1102 C.3     
  10 O10            0.1144    -4.1749     4.3559 O.3     
  11 C11           -0.4459    -4.7950     5.4275 C.ar    
  12 C12           -1.3592    -4.1183     6.2229 C.ar    
  13 C13           -1.9276    -4.7511     7.3114 C.ar    
  14 C14           -1.5867    -6.0576     7.6087 C.ar    
  15 C15           -0.6764    -6.7341     6.8179 C.ar    
  16 C16           -0.1098    -6.1078     5.7247 C.ar    
  17 C17           -2.2080    -6.7453     8.7971 C.3     
  18 C18           -1.6651    -8.1720     8.9020 C.3     
  19 C19           -1.8620    -5.9730    10.0717 C.3     
  20 C20           -3.7275    -6.7893     8.6240 C.3     
  21 F21           -4.0439    -7.4955     7.4585 F       
  22 F22           -4.3042    -7.4277     9.7271 F       
  23 F23           -4.2238    -5.4848     8.5280 F       
  24 C24            0.0397    -0.8384     2.5641 C.3     
  25 N25            0.0235    -0.8230     1.0909 N.pl3   
  26 C26            0.0005    -0.3797    -2.4611 C.1     
  27 N27           -0.0060    -0.0376    -3.5443 N.1     
  28 H28            1.0042     1.8801     0.0026 H       
  29 H29           -0.5455     1.8639    -0.8728 H       
  30 H30           -0.5286     1.8543     0.9071 H       
  31 H31           -0.0211    -2.2076     4.9723 H       
  32 H32           -1.3546    -2.7820     3.9427 H       
  33 H33           -1.6253    -3.0975     5.9914 H       
  34 H34           -2.6387    -4.2247     7.9308 H       
  35 H35           -0.4114    -7.7545     7.0525 H       
  36 H36            0.5979    -6.6381     5.1047 H       
  37 H37           -0.5826    -8.1406     9.0253 H       
  38 H38           -2.1145    -8.6694     9.7615 H       
  39 H39           -1.9116    -8.7222     7.9939 H       
  40 H40           -2.2487    -4.9566     9.9969 H       
  41 H41           -2.3113    -6.4704    10.9312 H       
  42 H42           -0.7794    -5.9417    10.1950 H       
  43 H43           -0.9487    -0.6204     2.9685 H       
  44 H44            0.7805    -0.1372     2.9485 H       
@<TRIPOS>BOND
   1    1    2 1
   2    1   28 1
   3    1   29 1
   4    1   30 1
   5    2   25 1
   6    2    3 2
   7    3    4 1
   8    3   26 1
   9    4    5 2
  10    5   25 1
  11    5    6 1
  12    6    7 1
  13    7    8 1
  14    7    9 1
  15    7   24 1
  16    9   10 1
  17    9   31 1
  18    9   32 1
  19   10   11 1
  20   11   16 ar
  21   11   12 ar
  22   12   13 ar
  23   12   33 1
  24   13   14 ar
  25   13   34 1
  26   14   15 ar
  27   14   17 1
  28   15   16 ar
  29   15   35 1
  30   16   36 1
  31   17   18 1
  32   17   19 1
  33   17   20 1
  34   18   37 1
  35   18   38 1
  36   18   39 1
  37   19   40 1
  38   19   41 1
  39   19   42 1
  40   20   21 1
  41   20   22 1
  42   20   23 1
  43   24   25 1
  44   24   43 1
  45   24   44 1
  46   26   27 3

#	End of record

