#	Name: ASD03740062
#	Creating user name:	WinNT
#	Creation time:	15. 06. 2019 20:46

#	Modifying user name:	WinNT
#	Modification time:	15. 06. 2019 20:46

#	Program:	/corina/corina34_cracker 3.40 0067  02.08.2006

@<TRIPOS>MOLECULE
ASD03740062
  58   60    0    0    0
SMALL
NO_CHARGES


@<TRIPOS>ATOM
   1 Cl1            0.0000     0.0000     0.0000 Cl      
   2 H2             0.0000     1.3700     0.0000 H       
   3 C3            15.7383    11.6025     6.9744 C.ar    
   4 C4            15.7572    10.2130     6.9668 C.ar    
   5 C5            14.5936     9.4977     6.9741 C.ar    
   6 C6            13.3702    10.1638     6.9898 C.ar    
   7 C7            13.3497    11.5716     6.9980 C.ar    
   8 C8            14.5545    12.2816     6.9951 C.ar    
   9 N9            12.0642     9.7487     7.0002 N.pl3   
  10 N10           11.2265    10.8685     7.0147 N.2     
  11 C11           11.9400    11.9614     7.0140 C.2     
  12 C12           11.6168     8.3537     6.9961 C.3     
  13 C13           11.4774     7.8668     8.4155 C.ar    
  14 C14           10.2736     8.0090     9.0799 C.ar    
  15 C15           10.1457     7.5624    10.3818 C.ar    
  16 C16           11.2215     6.9731    11.0192 C.ar    
  17 C17           12.4251     6.8301    10.3545 C.ar    
  18 C18           12.5517     7.2728     9.0511 C.ar    
  19 O19           11.4596    13.2329     7.0263 O.3     
  20 C20           10.0393    13.3897     7.0410 C.3     
  21 C21            9.6908    14.8794     7.0533 C.3     
  22 C22            8.1701    15.0473     7.0690 C.3     
  23 N23            7.8354    16.4776     7.0809 N.3     
  24 C24            6.3987    16.6838     6.8580 C.3     
  25 C25            6.0637    18.1681     7.0211 C.3     
  26 C26            6.8778    18.9839     6.0131 C.3     
  27 C27            8.3686    18.7139     6.2353 C.3     
  28 C28            8.6368    17.2138     6.0949 C.3     
  29 C29           17.0372    12.3667     6.9662 C.3     
  30 H30           16.7033     9.6925     6.9546 H       
  31 H31           14.6219     8.4181     6.9673 H       
  32 H32           14.5482    13.3616     7.0013 H       
  33 H33           10.6534     8.2826     6.4913 H       
  34 H34           12.3482     7.7390     6.4713 H       
  35 H35            9.4330     8.4694     8.5819 H       
  36 H36            9.2054     7.6742    10.9012 H       
  37 H37           11.1218     6.6249    12.0367 H       
  38 H38           13.2657     6.3700    10.8526 H       
  39 H39           13.4920     7.1610     8.5317 H       
  40 H40            9.6132    12.9242     6.1522 H       
  41 H41            9.6304    12.9135     7.9321 H       
  42 H42           10.1169    15.3449     7.9421 H       
  43 H43           10.0997    15.3557     6.1622 H       
  44 H44            7.7440    14.5818     6.1803 H       
  45 H45            7.7612    14.5710     7.9602 H       
  46 H46            6.1376    16.3612     5.8501 H       
  47 H47            5.8313    16.1015     7.5839 H       
  48 H48            5.0000    18.3231     6.8402 H       
  49 H49            6.3117    18.4881     8.0331 H       
  50 H50            6.6017    18.6914     5.0000 H       
  51 H51            6.6748    20.0454     6.1548 H       
  52 H52            8.9517    19.2589     5.4929 H       
  53 H53            8.6529    19.0425     7.2349 H       
  54 H54            9.6949    17.0164     6.2667 H       
  55 H55            8.3652    16.8887     5.0906 H       
  56 H56           17.3405    12.5564     5.9365 H       
  57 H57           16.9040    13.3152     7.4864 H       
  58 H58           17.8065    11.7811     7.4695 H       
@<TRIPOS>BOND
   1    1    2 1
   2    3    4 ar
   3    3   29 1
   4    3    8 ar
   5    4    5 ar
   6    4   30 1
   7    5    6 ar
   8    5   31 1
   9    6    7 ar
  10    6    9 1
  11    7    8 ar
  12    7   11 1
  13    8   32 1
  14    9   10 1
  15    9   12 1
  16   10   11 2
  17   11   19 1
  18   12   13 1
  19   12   33 1
  20   12   34 1
  21   13   14 ar
  22   13   18 ar
  23   14   15 ar
  24   14   35 1
  25   15   16 ar
  26   15   36 1
  27   16   17 ar
  28   16   37 1
  29   17   18 ar
  30   17   38 1
  31   18   39 1
  32   19   20 1
  33   20   21 1
  34   20   40 1
  35   20   41 1
  36   21   22 1
  37   21   42 1
  38   21   43 1
  39   22   23 1
  40   22   44 1
  41   22   45 1
  42   23   24 1
  43   23   28 1
  44   24   25 1
  45   24   46 1
  46   24   47 1
  47   25   26 1
  48   25   48 1
  49   25   49 1
  50   26   27 1
  51   26   50 1
  52   26   51 1
  53   27   28 1
  54   27   52 1
  55   27   53 1
  56   28   54 1
  57   28   55 1
  58   29   56 1
  59   29   57 1
  60   29   58 1

#	End of record

