#	Name: ASD05720248
#	Creating user name:	WinNT
#	Creation time:	15. 06. 2019 21:02

#	Modifying user name:	WinNT
#	Modification time:	15. 06. 2019 21:02

#	Program:	/corina/corina34_cracker 3.40 0067  02.08.2006

@<TRIPOS>MOLECULE
ASD05720248
  70   74    0    0    0
SMALL
NO_CHARGES


@<TRIPOS>ATOM
   1 O1            -0.1057     1.1922     0.1319 O.3     
   2 C2             0.0760    -0.1229    -0.0318 C.2     
   3 N3             1.3629    -0.4849    -0.1233 N.am    
   4 C4             2.2045     0.7163    -0.0116 C.3     
   5 C5             1.1882     1.8613     0.1632 C.3     
   6 O6            -0.8419    -0.9166    -0.0921 O.2     
   7 C7             3.0264     0.9171    -1.2863 C.3     
   8 C8             2.0843     1.0618    -2.4831 C.3     
   9 C9             3.8768     2.1818    -1.1508 C.3     
  10 C10            3.5767    -3.2462    -0.6515 C.2     
  11 N11            3.1138    -2.0035    -0.4840 N.2     
  12 C12            1.8266    -1.7827    -0.2951 C.2     
  13 C13            0.9217    -2.8635    -0.2671 C.2     
  14 C14            1.3865    -4.1223    -0.4357 C.2     
  15 N15            2.7256    -4.3195    -0.6299 N.pl3   
  16 N16            3.4867    -5.4766    -0.8302 N.2     
  17 C17            4.7473    -5.1464    -0.9698 C.2     
  18 C18            4.8636    -3.7547    -0.8717 C.2     
  19 C19            6.1130    -2.9678    -0.9781 C.ar    
  20 C20            6.5874    -2.2553     0.1273 C.ar    
  21 C21            7.7511    -1.5229     0.0263 C.ar    
  22 C22            8.4540    -1.4933    -1.1783 C.ar    
  23 C23            7.9805    -2.2040    -2.2806 C.ar    
  24 C24            6.8210    -2.9411    -2.1801 C.ar    
  25 N25           11.5313     0.2362    -2.0253 N.pl3   
  26 N26           10.4540    -0.5989    -2.3634 N.2     
  27 C27            9.7055    -0.7050    -1.2869 C.2     
  28 N28           10.2611     0.0178    -0.3047 N.2     
  29 C29           11.3556     0.5852    -0.7382 C.2     
  30 C30           12.6336     0.6423    -2.9007 C.3     
  31 O31           13.5253     1.4948    -2.1796 O.3     
  32 C32           14.6418     1.9500    -2.9466 C.3     
  33 C33           15.5238     2.8499    -2.0788 C.3     
  34 Si34          16.9794     3.4434    -3.0787 Si      
  35 C35           16.3693     4.4065    -4.5521 C.3     
  36 C36           18.0534     4.5391    -2.0220 C.3     
  37 C37           17.9710     1.9780    -3.6620 C.3     
  38 F38            5.9058    -2.2842     1.2935 F       
  39 H39            2.8568     0.6472     0.8589 H       
  40 H40            1.2700     2.5735    -0.6579 H       
  41 H41            1.3367     2.3614     1.1202 H       
  42 H42            3.6774     0.0562    -1.4383 H       
  43 H43            1.3779     1.8699    -2.2938 H       
  44 H44            2.6650     1.2888    -3.3772 H       
  45 H45            1.5390     0.1296    -2.6310 H       
  46 H46            3.2332     3.0286    -0.9122 H       
  47 H47            4.6074     2.0448    -0.3537 H       
  48 H48            4.3955     2.3732    -2.0902 H       
  49 H49           -0.1326    -2.6880    -0.1120 H       
  50 H50            0.7078    -4.9622    -0.4168 H       
  51 H51            5.5625    -5.8349    -1.1367 H       
  52 H52            8.1183    -0.9719     0.8795 H       
  53 H53            8.5256    -2.1803    -3.2126 H       
  54 H54            6.4575    -3.4948    -3.0332 H       
  55 H55           12.0074     1.2250    -0.1617 H       
  56 H56           13.1721    -0.2422    -3.2410 H       
  57 H57           12.2349     1.1786    -3.7618 H       
  58 H58           15.2220     1.0927    -3.2878 H       
  59 H59           14.2848     2.5135    -3.8086 H       
  60 H60           14.9437     3.7072    -1.7375 H       
  61 H61           15.8808     2.2864    -1.2167 H       
  62 H62           15.7891     5.2638    -4.2109 H       
  63 H63           17.2209     4.7537    -5.1372 H       
  64 H64           15.7409     3.7654    -5.1704 H       
  65 H65           18.4104     3.9756    -1.1600 H       
  66 H66           18.9050     4.8863    -2.6071 H       
  67 H67           17.4732     5.3964    -1.6808 H       
  68 H68           17.3426     1.3369    -4.2802 H       
  69 H69           18.8226     2.3252    -4.2471 H       
  70 H70           18.3280     1.4145    -2.7999 H       
@<TRIPOS>BOND
   1    1    2 1
   2    1    5 1
   3    2    3 am
   4    2    6 2
   5    3    4 1
   6    3   12 1
   7    4    5 1
   8    4    7 1
   9    4   39 1
  10    5   40 1
  11    5   41 1
  12    7    8 1
  13    7    9 1
  14    7   42 1
  15    8   43 1
  16    8   44 1
  17    8   45 1
  18    9   46 1
  19    9   47 1
  20    9   48 1
  21   10   11 1
  22   10   15 1
  23   10   18 2
  24   11   12 2
  25   12   13 1
  26   13   14 2
  27   13   49 1
  28   14   15 1
  29   14   50 1
  30   15   16 1
  31   16   17 2
  32   17   18 1
  33   17   51 1
  34   18   19 1
  35   19   20 ar
  36   19   24 ar
  37   20   21 ar
  38   20   38 1
  39   21   22 ar
  40   21   52 1
  41   22   23 ar
  42   22   27 1
  43   23   24 ar
  44   23   53 1
  45   24   54 1
  46   25   26 1
  47   25   29 1
  48   25   30 1
  49   26   27 2
  50   27   28 1
  51   28   29 2
  52   29   55 1
  53   30   31 1
  54   30   56 1
  55   30   57 1
  56   31   32 1
  57   32   33 1
  58   32   58 1
  59   32   59 1
  60   33   34 1
  61   33   60 1
  62   33   61 1
  63   34   35 1
  64   34   36 1
  65   34   37 1
  66   35   62 1
  67   35   63 1
  68   35   64 1
  69   36   65 1
  70   36   66 1
  71   36   67 1
  72   37   68 1
  73   37   69 1
  74   37   70 1

#	End of record

