#	Name: ASD01911831
#	Creating user name:	WinNT
#	Creation time:	15. 06. 2019 19:58

#	Modifying user name:	WinNT
#	Modification time:	15. 06. 2019 19:58

#	Program:	/corina/corina34_cracker 3.40 0067  02.08.2006

@<TRIPOS>MOLECULE
ASD01911831
  36   38    0    0    0
SMALL
NO_CHARGES


@<TRIPOS>ATOM
   1 C1            -1.0604    -0.5021    -2.0826 C.ar    
   2 C2            -1.0561     0.0560    -0.8078 C.ar    
   3 C3            -1.0049     1.4362    -0.6769 C.ar    
   4 N4            -0.9608     2.2118    -1.7421 N.ar    
   5 C5            -0.9635     1.7150    -2.9634 C.ar    
   6 C6            -1.0131     0.3495    -3.1742 C.ar    
   7 O7            -1.1019    -0.7395     0.2930 O.3     
   8 C8            -1.1523    -2.0845     0.1064 C.ar    
   9 C9            -0.0018    -2.7817    -0.2361 C.ar    
  10 C10           -0.0519    -4.1501    -0.4267 C.ar    
  11 C11           -1.2474    -4.8281    -0.2763 C.ar    
  12 C12           -2.4011    -4.1351     0.0667 C.ar    
  13 C13           -2.3514    -2.7618     0.2636 C.ar    
  14 N14           -3.6105    -4.8207     0.2185 N.am    
  15 C15           -4.7725    -4.2155    -0.0976 C.2     
  16 C16           -6.0567    -4.9006     0.1602 C.ar    
  17 C17           -7.2618    -4.2765    -0.1660 C.ar    
  18 C18           -8.4574    -4.9211     0.0766 C.ar    
  19 C19           -8.4641    -6.1833     0.6423 C.ar    
  20 C20           -7.2723    -6.8086     0.9690 C.ar    
  21 C21           -6.0691    -6.1768     0.7256 C.ar    
  22 O22           -4.7645    -3.1062    -0.5948 O.2     
  23 Cl23          -7.2911    -8.3923     1.6797 Cl      
  24 Br24           1.5174    -5.0960    -0.8944 Br      
  25 H25           -1.0953    -1.5730    -2.2176 H       
  26 H26           -1.0015     1.8799     0.3078 H       
  27 H27           -0.9265     2.3839    -3.8106 H       
  28 H28           -1.0149    -0.0486    -4.1782 H       
  29 H29            0.9333    -2.2545    -0.3542 H       
  30 H30           -1.2842    -5.8970    -0.4261 H       
  31 H31           -3.2473    -2.2209     0.5304 H       
  32 H32           -3.6131    -5.7318     0.5512 H       
  33 H33           -7.2584    -3.2907    -0.6071 H       
  34 H34           -9.3902    -4.4389    -0.1756 H       
  35 H35           -9.4027    -6.6833     0.8303 H       
  36 H36           -5.1401    -6.6651     0.9803 H       
@<TRIPOS>BOND
   1    1    2 ar
   2    1    6 ar
   3    1   25 1
   4    2    3 ar
   5    2    7 1
   6    3    4 ar
   7    3   26 1
   8    4    5 ar
   9    5    6 ar
  10    5   27 1
  11    6   28 1
  12    7    8 1
  13    8    9 ar
  14    8   13 ar
  15    9   10 ar
  16    9   29 1
  17   10   11 ar
  18   10   24 1
  19   11   12 ar
  20   11   30 1
  21   12   13 ar
  22   12   14 1
  23   13   31 1
  24   14   15 am
  25   14   32 1
  26   15   16 1
  27   15   22 2
  28   16   17 ar
  29   16   21 ar
  30   17   18 ar
  31   17   33 1
  32   18   19 ar
  33   18   34 1
  34   19   20 ar
  35   19   35 1
  36   20   21 ar
  37   20   23 1
  38   21   36 1

#	End of record

