#	Name: ASD01885807
#	Creating user name:	WinNT
#	Creation time:	15. 06. 2019 19:50

#	Modifying user name:	WinNT
#	Modification time:	15. 06. 2019 19:50

#	Program:	/corina/corina34_cracker 3.40 0067  02.08.2006

@<TRIPOS>MOLECULE
ASD01885807
  60   63    0    0    0
SMALL
NO_CHARGES


@<TRIPOS>ATOM
   1 C1            -0.0160     1.3291     0.0093 C.ar    
   2 C2            -1.2522     2.0239     0.0189 C.ar    
   3 C3            -2.4598     1.2808     0.0210 C.ar    
   4 C4            -2.3703    -0.1044     0.0135 C.ar    
   5 C5            -1.1104    -0.7137     0.0043 C.ar    
   6 N6             0.0021    -0.0041     0.0020 N.ar    
   7 C7             1.1365     3.4282     0.0092 C.ar    
   8 C8            -0.0805     4.1063     0.0248 C.ar    
   9 C9            -1.2606     3.4245     0.0266 C.ar    
  10 C10           -3.7750     1.9611     0.0313 C.ar    
  11 C11           -1.0235    -2.1940    -0.0038 C.2     
  12 C12            2.4228     4.2133     0.0076 C.3     
  13 N13            2.8509     4.4547     1.3920 N.3     
  14 C14            1.1823     2.0683     0.0019 C.ar    
  15 N15            0.1812    -2.7982    -0.0132 N.am    
  16 O16           -2.0383    -2.8621    -0.0018 O.2     
  17 C17            4.2124     5.0061     1.4337 C.3     
  18 C18            4.5898     5.3170     2.8839 C.3     
  19 N19            4.4973     4.0888     3.6856 N.3     
  20 C20            3.1357     3.5374     3.6439 C.3     
  21 C21            2.7583     3.2265     2.1936 C.3     
  22 C22            6.0219     5.8532     2.9350 C.3     
  23 C23           -4.7577     1.5985    -0.8903 C.ar    
  24 C24           -5.9812     2.2347    -0.8763 C.ar    
  25 C25           -6.2354     3.2328     0.0512 C.ar    
  26 C26           -5.2623     3.5968     0.9685 C.ar    
  27 C27           -4.0376     2.9626     0.9663 C.ar    
  28 F28           -7.4355     3.8531     0.0609 F       
  29 C29            6.1184     7.1304     2.0981 C.3     
  30 C30            6.3988     6.1639     4.3850 C.3     
  31 C31            6.9806     4.8015     2.3730 C.3     
  32 H32           -3.2662    -0.7075     0.0151 H       
  33 H33           -0.0888     5.1862     0.0355 H       
  34 H34           -2.1976     3.9615     0.0335 H       
  35 H35            3.1928     3.6481    -0.5175 H       
  36 H36            2.2656     5.1673    -0.4957 H       
  37 H37            2.1340     1.5579    -0.0092 H       
  38 H38            0.9913    -2.2648    -0.0147 H       
  39 H39            0.2380    -3.7665    -0.0184 H       
  40 H40            4.9124     4.2779     1.0239 H       
  41 H41            4.2523     5.9215     0.8433 H       
  42 H42            3.9067     6.0657     3.2850 H       
  43 H43            5.1737     3.4054     3.3795 H       
  44 H44            3.0958     2.6220     4.2343 H       
  45 H45            2.4358     4.2656     4.0536 H       
  46 H46            1.7381     2.8445     2.1572 H       
  47 H47            3.4417     2.4781     1.7924 H       
  48 H48           -4.5605     0.8212    -1.6137 H       
  49 H49           -6.7425     1.9551    -1.5896 H       
  50 H50           -5.4648     4.3756     1.6888 H       
  51 H51           -3.2799     3.2470     1.6815 H       
  52 H52            5.4354     7.8796     2.4985 H       
  53 H53            7.1386     7.5124     2.1345 H       
  54 H54            5.8499     6.9090     1.0651 H       
  55 H55            6.3300     5.2540     4.9812 H       
  56 H56            7.4190     6.5459     4.4214 H       
  57 H57            5.7158     6.9131     4.7853 H       
  58 H58            6.7121     4.5802     1.3401 H       
  59 H59            8.0008     5.1835     2.4094 H       
  60 H60            6.9118     3.8916     2.9692 H       
@<TRIPOS>BOND
   1    1    6 ar
   2    1   14 ar
   3    1    2 ar
   4    2    3 ar
   5    2    9 ar
   6    3   10 1
   7    3    4 ar
   8    4    5 ar
   9    4   32 1
  10    5   11 1
  11    5    6 ar
  12    7   12 1
  13    7    8 ar
  14    7   14 ar
  15    8    9 ar
  16    8   33 1
  17    9   34 1
  18   10   23 ar
  19   10   27 ar
  20   11   15 am
  21   11   16 2
  22   12   13 1
  23   12   35 1
  24   12   36 1
  25   13   17 1
  26   13   21 1
  27   14   37 1
  28   15   38 1
  29   15   39 1
  30   17   18 1
  31   17   40 1
  32   17   41 1
  33   18   22 1
  34   18   19 1
  35   18   42 1
  36   19   20 1
  37   19   43 1
  38   20   21 1
  39   20   44 1
  40   20   45 1
  41   21   46 1
  42   21   47 1
  43   22   29 1
  44   22   30 1
  45   22   31 1
  46   23   24 ar
  47   23   48 1
  48   24   25 ar
  49   24   49 1
  50   25   26 ar
  51   25   28 1
  52   26   27 ar
  53   26   50 1
  54   27   51 1
  55   29   52 1
  56   29   53 1
  57   29   54 1
  58   30   55 1
  59   30   56 1
  60   30   57 1
  61   31   58 1
  62   31   59 1
  63   31   60 1

#	End of record

