#	Name: ASD01912512
#	Creating user name:	WinNT
#	Creation time:	15. 06. 2019 19:59

#	Modifying user name:	WinNT
#	Modification time:	15. 06. 2019 19:59

#	Program:	/corina/corina34_cracker 3.40 0067  02.08.2006

@<TRIPOS>MOLECULE
ASD01912512
  45   49    0    0    0
SMALL
NO_CHARGES


@<TRIPOS>ATOM
   1 N1            -0.0157     1.3034     0.0092 N.2     
   2 C2             0.0021    -0.0041     0.0020 C.2     
   3 N3             1.2992    -0.3857    -0.0124 N.2     
   4 C4             1.9928     0.7254    -0.0131 C.2     
   5 O5             1.1176     1.7356     0.0007 O.3     
   6 C6            -1.1803    -0.9013     0.0089 C.ar    
   7 C7            -2.4654    -0.3638     0.0240 C.ar    
   8 C8            -1.0086    -2.2839    -0.0055 C.ar    
   9 C9            -2.1125    -3.1141     0.0005 C.ar    
  10 C10           -3.3872    -2.5740     0.0209 C.ar    
  11 C11           -3.5621    -1.2023     0.0299 C.ar    
  12 C12            3.4951     0.8427    -0.0263 C.3     
  13 C13            4.0469     1.5998    -1.2480 C.3     
  14 N14            4.9676     2.2560    -0.2995 N.am    
  15 C15            4.0328     2.0134     0.8165 C.3     
  16 C16            6.1766     2.8417    -0.4086 C.2     
  17 C17            6.8438     3.4255     0.8100 C.3     
  18 O18            6.7276     2.8988    -1.4875 O.2     
  19 C19            8.2246     4.0425     0.4307 C.3     
  20 C20            8.6783     4.8029     1.7142 C.3     
  21 C21            9.0144     3.6879     2.7307 C.3     
  22 C22            8.7322     2.3588     1.9656 C.3     
  23 C23            7.1799     2.3105     1.8266 C.3     
  24 C24            9.1414     2.7709     0.5075 C.3     
  25 Cl25          -1.9013    -4.8371    -0.0180 Cl      
  26 H26           -2.6036     0.7073     0.0315 H       
  27 H27           -0.0145    -2.7056    -0.0217 H       
  28 H28           -4.2480    -3.2262     0.0252 H       
  29 H29           -4.5585    -0.7862     0.0458 H       
  30 H30            3.9971    -0.1055     0.1658 H       
  31 H31            4.5472     0.9581    -1.9733 H       
  32 H32            3.3282     2.2802    -1.7046 H       
  33 H33            3.3100     2.8153     0.9663 H       
  34 H34            4.5219     1.7020     1.7395 H       
  35 H35            6.2037     4.1794     1.2682 H       
  36 H36            8.2523     4.6144    -0.4968 H       
  37 H37            9.5618     5.4063     1.5060 H       
  38 H38            7.8694     5.4291     2.0907 H       
  39 H39           10.0633     3.7431     3.0223 H       
  40 H40            8.3709     3.7659     3.6070 H       
  41 H41            9.2020     1.4644     2.3749 H       
  42 H42            6.7059     2.5158     2.7864 H       
  43 H43            6.8627     1.3400     1.4449 H       
  44 H44            8.8564     2.0165    -0.2257 H       
  45 H45           10.1991     3.0246     0.4360 H       
@<TRIPOS>BOND
   1    1    2 2
   2    1    5 1
   3    2    3 1
   4    2    6 1
   5    3    4 2
   6    4    5 1
   7    4   12 1
   8    6    7 ar
   9    6    8 ar
  10    7   11 ar
  11    7   26 1
  12    8    9 ar
  13    8   27 1
  14    9   10 ar
  15    9   25 1
  16   10   11 ar
  17   10   28 1
  18   11   29 1
  19   12   13 1
  20   12   15 1
  21   12   30 1
  22   13   14 1
  23   13   31 1
  24   13   32 1
  25   14   15 1
  26   14   16 am
  27   15   33 1
  28   15   34 1
  29   16   18 2
  30   16   17 1
  31   17   19 1
  32   17   23 1
  33   17   35 1
  34   19   20 1
  35   19   24 1
  36   19   36 1
  37   20   21 1
  38   20   37 1
  39   20   38 1
  40   21   22 1
  41   21   39 1
  42   21   40 1
  43   22   23 1
  44   22   24 1
  45   22   41 1
  46   23   42 1
  47   23   43 1
  48   24   44 1
  49   24   45 1

#	End of record

