#	Name: ASD08150638
#	Creating user name:	WinNT
#	Creation time:	15. 06. 2019 21:16

#	Modifying user name:	WinNT
#	Modification time:	15. 06. 2019 21:16

#	Program:	/corina/corina34_cracker 3.40 0067  02.08.2006

@<TRIPOS>MOLECULE
ASD08150638
  57   62    0    0    0
SMALL
NO_CHARGES


@<TRIPOS>ATOM
   1 N1             1.2411     3.6200    -1.1212 N.am    
   2 C2             1.3956     2.5925    -1.9787 C.2     
   3 C3             2.6023     1.8653    -2.0268 C.2     
   4 C4             3.6307     2.1930    -1.2038 C.2     
   5 C5             3.4718     3.2734    -0.3003 C.ar    
   6 C6             4.5070     3.6549     0.5745 C.ar    
   7 N7             4.3576     4.6519     1.4069 N.ar    
   8 C8             3.2228     5.3641     1.4773 C.ar    
   9 C9             2.1285     5.0508     0.6339 C.ar    
  10 C10            2.2578     3.9771    -0.2779 C.ar    
  11 C11            0.9497     5.7986     0.7157 C.ar    
  12 C12            0.8649     6.8412     1.6241 C.ar    
  13 C13            1.9522     7.1456     2.4551 C.ar    
  14 C14            3.1052     6.4276     2.3872 C.ar    
  15 O15            0.4794     2.2873    -2.7228 O.2     
  16 C16           -0.3816     7.6394     1.7174 C.ar    
  17 C17           -0.3171     9.0081     1.9743 C.ar    
  18 C18           -1.4779     9.7476     2.0600 C.ar    
  19 C19           -2.7099     9.1304     1.8908 C.ar    
  20 C20           -2.7775     7.7675     1.6353 C.ar    
  21 C21           -1.6200     7.0236     1.5427 C.ar    
  22 O22           -3.8519     9.8617     1.9758 O.3     
  23 C23            0.0352     4.3302    -1.0967 C.ar    
  24 C24           -0.1009     5.4963    -1.8388 C.ar    
  25 C25           -1.2922     6.1945    -1.8128 C.ar    
  26 C26           -2.3487     5.7340    -1.0487 C.ar    
  27 C27           -2.2165     4.5733    -0.3086 C.ar    
  28 C28           -1.0297     3.8673    -0.3348 C.ar    
  29 C29           -3.6469     6.4989    -1.0219 C.3     
  30 C30           -4.2022     6.5950    -2.4196 C.ar    
  31 C31           -5.1548     5.6898    -2.8486 C.ar    
  32 C32           -5.6641     5.7779    -4.1307 C.ar    
  33 C33           -5.2212     6.7715    -4.9836 C.ar    
  34 C34           -4.2693     7.6773    -4.5542 C.ar    
  35 C35           -3.7631     7.5918    -3.2707 C.ar    
  36 H36            2.7087     1.0444    -2.7206 H       
  37 H37            4.5568     1.6382    -1.2367 H       
  38 H38            5.4415     3.1137     0.5578 H       
  39 H39            0.1119     5.5653     0.0754 H       
  40 H40            1.8732     7.9614     3.1584 H       
  41 H41            3.9327     6.6754     3.0355 H       
  42 H42            0.6410     9.4886     2.1064 H       
  43 H43           -1.4285    10.8079     2.2594 H       
  44 H44           -3.7374     7.2900     1.5048 H       
  45 H45           -1.6730     5.9642     1.3395 H       
  46 H46           -4.1440    10.2345     1.1327 H       
  47 H47            0.7241     5.8568    -2.4352 H       
  48 H48           -1.3986     7.1013    -2.3897 H       
  49 H49           -3.0434     4.2164     0.2875 H       
  50 H50           -0.9284     2.9588     0.2402 H       
  51 H51           -4.3610     5.9804    -0.3821 H       
  52 H52           -3.4701     7.5011    -0.6315 H       
  53 H53           -5.5009     4.9135    -2.1822 H       
  54 H54           -6.4079     5.0703    -4.4661 H       
  55 H55           -5.6186     6.8399    -5.9854 H       
  56 H56           -3.9230     8.4534    -5.2207 H       
  57 H57           -3.0221     8.3017    -2.9341 H       
@<TRIPOS>BOND
   1    1    2 am
   2    1   10 1
   3    1   23 1
   4    2    3 1
   5    2   15 2
   6    3    4 2
   7    3   36 1
   8    4    5 1
   9    4   37 1
  10    5    6 ar
  11    5   10 ar
  12    6    7 ar
  13    6   38 1
  14    7    8 ar
  15    8    9 ar
  16    8   14 ar
  17    9   10 ar
  18    9   11 ar
  19   11   12 ar
  20   11   39 1
  21   12   13 ar
  22   12   16 1
  23   13   14 ar
  24   13   40 1
  25   14   41 1
  26   16   17 ar
  27   16   21 ar
  28   17   18 ar
  29   17   42 1
  30   18   19 ar
  31   18   43 1
  32   19   20 ar
  33   19   22 1
  34   20   21 ar
  35   20   44 1
  36   21   45 1
  37   22   46 1
  38   23   24 ar
  39   23   28 ar
  40   24   25 ar
  41   24   47 1
  42   25   26 ar
  43   25   48 1
  44   26   27 ar
  45   26   29 1
  46   27   28 ar
  47   27   49 1
  48   28   50 1
  49   29   30 1
  50   29   51 1
  51   29   52 1
  52   30   31 ar
  53   30   35 ar
  54   31   32 ar
  55   31   53 1
  56   32   33 ar
  57   32   54 1
  58   33   34 ar
  59   33   55 1
  60   34   35 ar
  61   34   56 1
  62   35   57 1

#	End of record

