#	Name: ASD03430889
#	Creating user name:	WinNT
#	Creation time:	15. 06. 2019 20:41

#	Modifying user name:	WinNT
#	Modification time:	15. 06. 2019 20:41

#	Program:	/corina/corina34_cracker 3.40 0067  02.08.2006

@<TRIPOS>MOLECULE
ASD03430889
  38   42    0    0    0
SMALL
NO_CHARGES


@<TRIPOS>ATOM
   1 N1            -0.0162     1.3425     0.0094 N.am    
   2 C2             0.0021    -0.0041     0.0020 C.2     
   3 C3             1.4490    -0.4174    -0.0098 C.3     
   4 C4             2.2227     0.8715    -0.0130 C.ar    
   5 C5             1.2720     1.8871     0.0000 C.ar    
   6 C6             1.6982     3.2125     0.0023 C.ar    
   7 C7             3.0500     3.5127    -0.0109 C.ar    
   8 C8             3.9903     2.4887    -0.0241 C.ar    
   9 C9             3.5682     1.1673    -0.0255 C.ar    
  10 N10            2.2514    -2.4405     0.7027 N.am    
  11 C11            1.7920    -1.2692     1.1829 C.2     
  12 C12            1.7769    -1.2694    -1.2036 C.ar    
  13 C13            1.6885    -1.0696    -2.5632 C.ar    
  14 C14            2.0780    -2.0694    -3.4367 C.ar    
  15 C15            2.5559    -3.2689    -2.9410 C.ar    
  16 C16            2.6453    -3.4737    -1.5800 C.ar    
  17 C17            2.2554    -2.4723    -0.6934 C.ar    
  18 O18            1.6774    -0.9603     2.3501 O.2     
  19 O19            5.3236     2.7647    -0.0328 O.3     
  20 O20            3.4430     4.8164    -0.0152 O.3     
  21 C21           -1.2427     2.1436     0.0198 C.3     
  22 O22           -0.9613    -0.7411     0.0048 O.2     
  23 C23            5.7027     4.0937    -0.4068 C.3     
  24 C24            4.8021     5.0803     0.3488 C.3     
  25 H25            0.9707     4.0107     0.0141 H       
  26 H26            4.2956     0.3691    -0.0370 H       
  27 H27            2.5455    -3.1767     1.2617 H       
  28 H28            1.3146    -0.1322    -2.9479 H       
  29 H29            2.0087    -1.9137    -4.5032 H       
  30 H30            2.8602    -4.0491    -3.6230 H       
  31 H31            3.0190    -4.4132    -1.2003 H       
  32 H32           -2.1089     1.4819     0.0209 H       
  33 H33           -1.2613     2.7680     0.9131 H       
  34 H34           -1.2704     2.7770    -0.8669 H       
  35 H35            6.7449     4.2679    -0.1390 H       
  36 H36            5.5717     4.2249    -1.4810 H       
  37 H37            5.0645     6.1019     0.0742 H       
  38 H38            4.9279     4.9441     1.4230 H       
@<TRIPOS>BOND
   1    1    2 am
   2    1    5 1
   3    1   21 1
   4    2    3 1
   5    2   22 2
   6    3    4 1
   7    3   11 1
   8    3   12 1
   9    4    5 ar
  10    4    9 ar
  11    5    6 ar
  12    6    7 ar
  13    6   25 1
  14    7    8 ar
  15    7   20 1
  16    8    9 ar
  17    8   19 1
  18    9   26 1
  19   10   11 am
  20   10   17 1
  21   10   27 1
  22   11   18 2
  23   12   13 ar
  24   12   17 ar
  25   13   14 ar
  26   13   28 1
  27   14   15 ar
  28   14   29 1
  29   15   16 ar
  30   15   30 1
  31   16   17 ar
  32   16   31 1
  33   19   23 1
  34   20   24 1
  35   21   32 1
  36   21   33 1
  37   21   34 1
  38   23   24 1
  39   23   35 1
  40   23   36 1
  41   24   37 1
  42   24   38 1

#	End of record

