#	Name: ASD03330373
#	Creating user name:	WinNT
#	Creation time:	15. 06. 2019 20:37

#	Modifying user name:	WinNT
#	Modification time:	15. 06. 2019 20:37

#	Program:	/corina/corina34_cracker 3.40 0067  02.08.2006

@<TRIPOS>MOLECULE
ASD03330373
  57   59    0    0    0
SMALL
NO_CHARGES


@<TRIPOS>ATOM
   1 C1             0.8407     3.5447    -1.3027 C.3     
   2 N2             0.8116     2.1488    -0.8440 N.3     
   3 C3             1.0576     1.2161    -1.9587 C.3     
   4 C4             2.2918     1.6792    -2.6887 C.2     
   5 N5             2.8373     2.9209    -2.5390 N.pl3   
   6 C6             2.2789     3.9470    -1.6542 C.3     
   7 C7             3.0619     1.0084    -3.5808 C.2     
   8 N8             4.0626     1.8346    -3.9630 N.2     
   9 C9             3.9332     2.9845    -3.3396 C.2     
  10 C10            4.8302     4.1519    -3.4852 C.ar    
  11 C11            5.7278     4.2166    -4.5515 C.ar    
  12 C12            2.8472    -0.3721    -4.0497 C.2     
  13 O13            1.9058    -1.0175    -3.6298 O.2     
  14 C14            3.4809    -2.2919    -5.4098 C.3     
  15 N15            3.6942    -0.9195    -4.9438 N.am    
  16 C16           -0.4578     1.8421    -0.1712 C.3     
  17 C17            6.5618     5.3076    -4.6822 C.ar    
  18 C18            6.5093     6.3372    -3.7578 C.ar    
  19 C19            5.6205     6.2783    -2.6976 C.ar    
  20 C20            4.7777     5.1950    -2.5601 C.ar    
  21 C21            4.1187    -2.4669    -6.7895 C.3     
  22 C22           -1.6024     1.9164    -1.1837 C.3     
  23 Cl23           7.5623     7.7068    -3.9283 Cl      
  24 C24            4.1215    -3.2708    -4.4238 C.3     
  25 O25            5.5314    -3.0431    -4.3748 O.3     
  26 C26            5.5920    -2.0593    -6.7256 C.3     
  27 C27            4.0130    -3.9319    -7.2181 C.3     
  28 C28            3.3890    -1.5847    -7.8044 C.3     
  29 H29            0.2093     3.6492    -2.1850 H       
  30 H30            0.4660     4.1939    -0.5114 H       
  31 H31            1.2153     0.2102    -1.5696 H       
  32 H32            0.2048     1.2199    -2.6374 H       
  33 H33            2.2771     4.9107    -2.1637 H       
  34 H34            2.8754     4.0124    -0.7443 H       
  35 H35            5.7698     3.4140    -5.2729 H       
  36 H36            2.4112    -2.4909    -5.4762 H       
  37 H37            4.4451    -0.4048    -5.2787 H       
  38 H38           -0.4115     0.8386     0.2519 H       
  39 H39           -0.6304     2.5650     0.6261 H       
  40 H40            7.2572     5.3586    -5.5069 H       
  41 H41            5.5839     7.0842    -1.9796 H       
  42 H42            4.0849     5.1501    -1.7328 H       
  43 H43           -1.6487     2.9199    -1.6068 H       
  44 H44           -1.4298     1.1935    -1.9810 H       
  45 H45           -2.5443     1.6888    -0.6845 H       
  46 H46            3.6944    -3.1197    -3.4325 H       
  47 H47            3.9297    -4.2929    -4.7502 H       
  48 H48            6.0037    -3.6297    -3.7682 H       
  49 H49            6.1496    -2.8005    -6.1530 H       
  50 H50            5.9970    -2.0008    -7.7359 H       
  51 H51            5.6791    -1.0862    -6.2424 H       
  52 H52            2.9634    -4.2223    -7.2636 H       
  53 H53            4.4674    -4.0566    -8.2010 H       
  54 H54            4.5329    -4.5604    -6.4950 H       
  55 H55            3.4643    -0.5410    -7.4990 H       
  56 H56            3.8434    -1.7094    -8.7873 H       
  57 H57            2.3394    -1.8751    -7.8499 H       
@<TRIPOS>BOND
   1    1    2 1
   2    1    6 1
   3    1   29 1
   4    1   30 1
   5    2    3 1
   6    2   16 1
   7    3    4 1
   8    3   31 1
   9    3   32 1
  10    4    5 1
  11    4    7 2
  12    5    6 1
  13    5    9 1
  14    6   33 1
  15    6   34 1
  16    7    8 1
  17    7   12 1
  18    8    9 2
  19    9   10 1
  20   10   11 ar
  21   10   20 ar
  22   11   17 ar
  23   11   35 1
  24   12   13 2
  25   12   15 am
  26   14   15 1
  27   14   24 1
  28   14   21 1
  29   14   36 1
  30   15   37 1
  31   16   22 1
  32   16   38 1
  33   16   39 1
  34   17   18 ar
  35   17   40 1
  36   18   19 ar
  37   18   23 1
  38   19   20 ar
  39   19   41 1
  40   20   42 1
  41   21   26 1
  42   21   27 1
  43   21   28 1
  44   22   43 1
  45   22   44 1
  46   22   45 1
  47   24   25 1
  48   24   46 1
  49   24   47 1
  50   25   48 1
  51   26   49 1
  52   26   50 1
  53   26   51 1
  54   27   52 1
  55   27   53 1
  56   27   54 1
  57   28   55 1
  58   28   56 1
  59   28   57 1

#	End of record

