#	Name: ASD02198569
#	Creating user name:	WinNT
#	Creation time:	15. 06. 2019 20:19

#	Modifying user name:	WinNT
#	Modification time:	15. 06. 2019 20:19

#	Program:	/corina/corina34_cracker 3.40 0067  02.08.2006

@<TRIPOS>MOLECULE
ASD02198569
  57   61    0    0    0
SMALL
NO_CHARGES


@<TRIPOS>ATOM
   1 C1             0.0072     1.5097     0.1333 C.2     
   2 C2             0.0745     0.1696    -0.0949 C.2     
   3 N3            -1.0518    -0.5605    -0.2647 N.pl3   
   4 N4            -2.2298    -0.0570    -0.2239 N.2     
   5 C5            -2.4374     1.2261    -0.0109 C.2     
   6 C6            -1.2791     2.1066     0.1921 C.2     
   7 C7            -0.9242    -1.9344    -0.4969 C.ar    
   8 C8            -1.3840    -3.8649    -1.8493 C.ar    
   9 C9            -0.6712    -4.6552    -0.9565 C.ar    
  10 C10           -0.0902    -4.0824     0.1687 C.ar    
  11 C11           -0.2166    -2.7276     0.3978 C.ar    
  12 C12           -3.8106     1.7690     0.0290 C.2     
  13 N13           -4.3725     2.4816     1.0507 N.pl3   
  14 N14           -5.6842     2.8002     0.6776 N.2     
  15 C15           -5.9147     2.3075    -0.5132 C.2     
  16 C16           -4.7639     1.6574    -0.9592 C.2     
  17 C17           -3.7486     2.8305     2.2552 C.ar    
  18 C18           -2.9553     1.9056     2.9212 C.ar    
  19 O19           -1.4170     3.3047     0.3938 O.2     
  20 C20           -3.9174     4.1038     2.7830 C.ar    
  21 C21           -3.3008     4.4447     3.9709 C.ar    
  22 C22           -2.5161     3.5196     4.6346 C.ar    
  23 C23           -2.3414     2.2526     4.1088 C.ar    
  24 C24           -1.5108    -2.5078    -1.6211 C.ar    
  25 F25           -2.2042    -1.7384    -2.4886 F       
  26 O26            1.1345     2.2509     0.3050 O.3     
  27 C27            2.3828     1.5590     0.2344 C.3     
  28 N28           -0.5429    -6.0269    -1.1869 N.3     
  29 C29            0.2449    -6.6673    -0.1259 C.3     
  30 C30            0.2422    -8.1838    -0.3314 C.3     
  31 C31            0.8394    -8.5092    -1.7033 C.3     
  32 C32            0.0299    -7.7913    -2.7868 C.3     
  33 C33            0.0388    -6.2861    -2.5102 C.3     
  34 F34            2.1689    -8.0763    -1.7491 F       
  35 F35            0.7884    -9.8904    -1.9197 F       
  36 H36            1.0379    -0.3163    -0.1414 H       
  37 H37           -1.8351    -4.3102    -2.7238 H       
  38 H38            0.4637    -4.6975     0.8624 H       
  39 H39            0.2349    -2.2836     1.2726 H       
  40 H40           -6.8413     2.3934    -1.0612 H       
  41 H41           -4.6441     1.1516    -1.9059 H       
  42 H42           -2.8187     0.9158     2.5112 H       
  43 H43           -4.5298     4.8269     2.2648 H       
  44 H44           -3.4314     5.4350     4.3817 H       
  45 H45           -2.0350     3.7886     5.5634 H       
  46 H46           -1.7279     1.5323     4.6295 H       
  47 H47            3.1988     2.2652     0.3879 H       
  48 H48            2.4168     0.7910     1.0072 H       
  49 H49            2.4851     1.0930    -0.7456 H       
  50 H50            1.2698    -6.2978    -0.1613 H       
  51 H51           -0.1928    -6.4314     0.8441 H       
  52 H52            0.8400    -8.6576     0.4473 H       
  53 H53           -0.7811    -8.5559    -0.2824 H       
  54 H54            0.4759    -7.9846    -3.7624 H       
  55 H55           -0.9968    -8.1572    -2.7764 H       
  56 H56           -0.5487    -5.7734    -3.2718 H       
  57 H57            1.0646    -5.9185    -2.5343 H       
@<TRIPOS>BOND
   1    1    2 2
   2    1   26 1
   3    1    6 1
   4    2    3 1
   5    2   36 1
   6    3    4 1
   7    3    7 1
   8    4    5 2
   9    5    6 1
  10    5   12 1
  11    6   19 2
  12    7   24 ar
  13    7   11 ar
  14    8    9 ar
  15    8   24 ar
  16    8   37 1
  17    9   10 ar
  18    9   28 1
  19   10   11 ar
  20   10   38 1
  21   11   39 1
  22   12   13 1
  23   12   16 2
  24   13   14 1
  25   13   17 1
  26   14   15 2
  27   15   16 1
  28   15   40 1
  29   16   41 1
  30   17   20 ar
  31   17   18 ar
  32   18   23 ar
  33   18   42 1
  34   20   21 ar
  35   20   43 1
  36   21   22 ar
  37   21   44 1
  38   22   23 ar
  39   22   45 1
  40   23   46 1
  41   24   25 1
  42   26   27 1
  43   27   47 1
  44   27   48 1
  45   27   49 1
  46   28   29 1
  47   28   33 1
  48   29   30 1
  49   29   50 1
  50   29   51 1
  51   30   31 1
  52   30   52 1
  53   30   53 1
  54   31   32 1
  55   31   34 1
  56   31   35 1
  57   32   33 1
  58   32   54 1
  59   32   55 1
  60   33   56 1
  61   33   57 1

#	End of record

