#	Name: ASD02470002
#	Creating user name:	WinNT
#	Creation time:	15. 06. 2019 20:22

#	Modifying user name:	WinNT
#	Modification time:	15. 06. 2019 20:22

#	Program:	/corina/corina34_cracker 3.40 0067  02.08.2006

@<TRIPOS>MOLECULE
ASD02470002
  15   14    0    0    0
SMALL
NO_CHARGES


@<TRIPOS>ATOM
   1 C1            -0.0225     1.8097     0.0120 C.2     
   2 P2             0.0021    -0.0041     0.0020 P.3     
   3 C3             1.2722     2.5809     0.0038 C.3     
   4 O4            -1.0764     2.3993     0.0202 O.2     
   5 O5             0.7179    -0.4943     1.2010 O.2     
   6 O6            -1.5084    -0.5613     0.0134 O.3     
   7 O7             0.7557    -0.5233    -1.3226 O.3     
   8 C8            -1.8243    -1.9514     0.1135 C.3     
   9 H9             1.8387     2.3302    -0.8930 H       
  10 H10            1.0585     3.6497     0.0116 H       
  11 H11            1.8557     2.3206     0.8868 H       
  12 H12            0.3404    -0.2390    -2.1483 H       
  13 H13           -1.3853    -2.4853    -0.7293 H       
  14 H14           -1.4221    -2.3493     1.0451 H       
  15 H15           -2.9067    -2.0798     0.1009 H       
@<TRIPOS>BOND
   1    1    2 1
   2    1    3 1
   3    1    4 2
   4    2    5 2
   5    2    6 1
   6    2    7 1
   7    3    9 1
   8    3   10 1
   9    3   11 1
  10    6    8 1
  11    7   12 1
  12    8   13 1
  13    8   14 1
  14    8   15 1

#	End of record

