#	Name: ASD04882165
#	Creating user name:	WinNT
#	Creation time:	15. 06. 2019 20:54

#	Modifying user name:	WinNT
#	Modification time:	15. 06. 2019 20:54

#	Program:	/corina/corina34_cracker 3.40 0067  02.08.2006

@<TRIPOS>MOLECULE
ASD04882165
  76   80    0    0    0
SMALL
NO_CHARGES


@<TRIPOS>ATOM
   1 C1            -0.1619     1.4885     0.4537 C.ar    
   2 C2            -0.1422     0.0094     0.4884 C.2     
   3 N3            -1.1637    -0.6908    -0.0433 N.am    
   4 C4            -1.0913    -2.0878    -0.1180 C.ar    
   5 C5            -2.2495    -2.8569     0.0250 C.ar    
   6 C6            -2.1792    -4.2433    -0.0495 C.ar    
   7 C7            -0.9687    -4.8639    -0.2644 C.ar    
   8 C8             0.1935    -4.1008    -0.4083 C.ar    
   9 C9             0.1248    -2.7065    -0.3391 C.ar    
  10 N10           -3.4754    -2.2337     0.2428 N.3     
  11 C11           -3.4997    -1.5615     1.5495 C.3     
  12 C12           -4.5822    -3.1935     0.1269 C.3     
  13 C13           -5.9130    -2.4562     0.2937 C.3     
  14 N14           -5.9372    -1.7841     1.6003 N.3     
  15 C15           -4.8305    -0.8242     1.7162 C.3     
  16 C16           -7.1670    -1.1589     1.8188 C.ar    
  17 C17           -7.6083    -0.1686     0.9508 C.ar    
  18 C18           -7.9541    -1.5302     2.9018 C.ar    
  19 C19           -9.1693    -0.9101     3.1149 C.ar    
  20 C20           -9.6034     0.0794     2.2515 C.ar    
  21 C21           -8.8249     0.4477     1.1698 C.ar    
  22 C22            1.4901    -4.7659    -0.6385 C.2     
  23 N23            1.5545    -6.1102    -0.7102 N.am    
  24 O24            2.5006    -4.1012    -0.7636 O.2     
  25 O25            0.7954    -0.5742     0.9964 O.2     
  26 C26            2.8421    -6.7707    -0.9388 C.3     
  27 C27            2.6380    -8.2865    -0.9770 C.3     
  28 C28            3.9826    -8.9763    -1.2157 C.3     
  29 N29            3.7872   -10.4277    -1.2523 N.am    
  30 C30            3.5178   -11.1289    -2.3671 C.2     
  31 C31            3.3687   -12.5972    -2.0348 C.3     
  32 C32            3.1758   -12.6212    -0.5008 C.3     
  33 C33            3.8667   -11.3039    -0.0776 C.3     
  34 C34           -7.4824    -2.6089     3.8425 C.3     
  35 O35            3.4096   -10.6535    -3.4775 O.2     
  36 C36            0.8987     2.2085     1.0058 C.ar    
  37 N37           -1.1861     2.1210    -0.1075 N.ar    
  38 C38           -1.2421     3.4332    -0.1595 C.ar    
  39 C39           -0.2265     4.2126     0.3735 C.ar    
  40 C40            0.8641     3.5970     0.9641 C.ar    
  41 F41            1.9429     1.5653     1.5724 F       
  42 H42           -1.9490    -0.2275    -0.3741 H       
  43 H43           -3.0758    -4.8351     0.0618 H       
  44 H44           -0.9173    -5.9412    -0.3214 H       
  45 H45            1.0211    -2.1143    -0.4499 H       
  46 H46           -3.3928    -2.3026     2.3416 H       
  47 H47           -2.6785    -0.8470     1.6062 H       
  48 H48           -4.5501    -3.6688    -0.8535 H       
  49 H49           -4.4876    -3.9531     0.9029 H       
  50 H50           -6.0199    -1.7151    -0.4985 H       
  51 H51           -6.7342    -3.1707     0.2370 H       
  52 H52           -4.8625    -0.3489     2.6966 H       
  53 H53           -4.9251    -0.0646     0.9402 H       
  54 H54           -7.0008     0.1196     0.1056 H       
  55 H55           -9.7816    -1.1983     3.9566 H       
  56 H56          -10.5545     0.5623     2.4201 H       
  57 H57           -9.1668     1.2207     0.4976 H       
  58 H58            0.7484    -6.6404    -0.6104 H       
  59 H59            3.2584    -6.4361    -1.8889 H       
  60 H60            3.5290    -6.5168    -0.1315 H       
  61 H61            2.2216    -8.6211    -0.0268 H       
  62 H62            1.9510    -8.5404    -1.7843 H       
  63 H63            4.3990    -8.6417    -2.1659 H       
  64 H64            4.6696    -8.7224    -0.4085 H       
  65 H65            2.4954   -13.0149    -2.5357 H       
  66 H66            4.2686   -13.1450    -2.3148 H       
  67 H67            2.1174   -12.6123    -0.2406 H       
  68 H68            3.6776   -13.4816    -0.0580 H       
  69 H69            4.9063   -11.4923     0.1903 H       
  70 H70            3.3363   -10.8522     0.7608 H       
  71 H71           -6.9044    -2.1595     4.6500 H       
  72 H72           -8.3443    -3.1301     4.2591 H       
  73 H73           -6.8573    -3.3173     3.2989 H       
  74 H74           -2.0915     3.9114    -0.6245 H       
  75 H75           -0.2837     5.2900     0.3248 H       
  76 H76            1.6675     4.1825     1.3861 H       
@<TRIPOS>BOND
   1    1    2 1
   2    1   36 ar
   3    1   37 ar
   4    2    3 am
   5    2   25 2
   6    3    4 1
   7    3   42 1
   8    4    5 ar
   9    4    9 ar
  10    5    6 ar
  11    5   10 1
  12    6    7 ar
  13    6   43 1
  14    7    8 ar
  15    7   44 1
  16    8    9 ar
  17    8   22 1
  18    9   45 1
  19   10   11 1
  20   10   12 1
  21   11   15 1
  22   11   46 1
  23   11   47 1
  24   12   13 1
  25   12   48 1
  26   12   49 1
  27   13   14 1
  28   13   50 1
  29   13   51 1
  30   14   15 1
  31   14   16 1
  32   15   52 1
  33   15   53 1
  34   16   17 ar
  35   16   18 ar
  36   17   21 ar
  37   17   54 1
  38   18   19 ar
  39   18   34 1
  40   19   20 ar
  41   19   55 1
  42   20   21 ar
  43   20   56 1
  44   21   57 1
  45   22   23 am
  46   22   24 2
  47   23   26 1
  48   23   58 1
  49   26   27 1
  50   26   59 1
  51   26   60 1
  52   27   28 1
  53   27   61 1
  54   27   62 1
  55   28   29 1
  56   28   63 1
  57   28   64 1
  58   29   30 am
  59   29   33 1
  60   30   31 1
  61   30   35 2
  62   31   32 1
  63   31   65 1
  64   31   66 1
  65   32   33 1
  66   32   67 1
  67   32   68 1
  68   33   69 1
  69   33   70 1
  70   34   71 1
  71   34   72 1
  72   34   73 1
  73   36   41 1
  74   36   40 ar
  75   37   38 ar
  76   38   39 ar
  77   38   74 1
  78   39   40 ar
  79   39   75 1
  80   40   76 1

#	End of record

