#	Name: ASD08520006
#	Creating user name:	WinNT
#	Creation time:	15. 06. 2019 21:19

#	Modifying user name:	WinNT
#	Modification time:	15. 06. 2019 21:19

#	Program:	/corina/corina34_cracker 3.40 0067  02.08.2006

@<TRIPOS>MOLECULE
ASD08520006
  44   47    0    0    0
SMALL
NO_CHARGES


@<TRIPOS>ATOM
   1 C1            -0.0167     1.3822     0.0096 C.ar    
   2 C2             0.0021    -0.0041     0.0020 C.ar    
   3 N3             1.1325    -0.6774    -0.0124 N.ar    
   4 C4             2.3646     1.3419    -0.0133 C.ar    
   5 C5             1.1787     2.0768     0.0020 C.ar    
   6 C6             2.3091    -0.0638    -0.0203 C.ar    
   7 N7             3.6053    -0.5217    -0.0356 N.pl3   
   8 C8             4.4798     0.5322    -0.0386 C.2     
   9 C9             3.7910     1.6971    -0.0255 C.2     
  10 C10            4.3643     3.0667    -0.0238 C.2     
  11 C11            3.9620     4.0337    -0.8897 C.2     
  12 S12            4.8188     5.4837    -0.6195 S.3     
  13 C13            5.7384     4.7614     0.6923 C.2     
  14 C14            5.3488     3.4660     0.8637 C.2     
  15 C15            6.7632     5.4481     1.4846 C.2     
  16 O16            7.3440     4.8542     2.3741 O.2     
  17 N17            7.0622     6.7369     1.2279 N.am    
  18 C18            8.0862     7.4231     2.0196 C.3     
  19 C19            9.4668     7.1372     1.4253 C.3     
  20 C20            7.8273     8.9075     1.9975 C.ar    
  21 N21            9.6705     5.6852     1.3363 N.3     
  22 C22            7.3529    11.6309     1.9569 C.ar    
  23 C23            7.1701    10.8803     0.8106 C.ar    
  24 C24            7.4076     9.5186     0.8308 C.ar    
  25 C25            8.0041     9.6571     3.1455 C.ar    
  26 C26            7.7667    11.0187     3.1252 C.ar    
  27 H27           -0.9564     1.9146     0.0170 H       
  28 H28           -0.9332    -0.5441     0.0084 H       
  29 H29            1.1940     3.1566     0.0073 H       
  30 H30            3.8633    -1.4568    -0.0429 H       
  31 H31            5.5563     0.4466    -0.0497 H       
  32 H32            3.2029     3.9020    -1.6465 H       
  33 H33            5.7695     2.8146     1.6154 H       
  34 H34            6.5993     7.2103     0.5189 H       
  35 H35            8.0518     7.0635     3.0480 H       
  36 H36            9.5312     7.5749     0.4291 H       
  37 H37           10.2347     7.5734     2.0641 H       
  38 H38           10.5761     5.4703     0.9465 H       
  39 H39            9.5518     5.2475     2.2376 H       
  40 H40            7.1674    12.6947     1.9411 H       
  41 H41            6.8468    11.3585    -0.1022 H       
  42 H42            7.2656     8.9323    -0.0650 H       
  43 H43            8.3274     9.1788     4.0583 H       
  44 H44            7.9095    11.6051     4.0208 H       
@<TRIPOS>BOND
   1    1    2 ar
   2    1    5 ar
   3    1   27 1
   4    2    3 ar
   5    2   28 1
   6    3    6 ar
   7    4    5 ar
   8    4    9 1
   9    4    6 ar
  10    5   29 1
  11    6    7 1
  12    7    8 1
  13    7   30 1
  14    8    9 2
  15    8   31 1
  16    9   10 1
  17   10   11 2
  18   10   14 1
  19   11   12 1
  20   11   32 1
  21   12   13 1
  22   13   14 2
  23   13   15 1
  24   14   33 1
  25   15   16 2
  26   15   17 am
  27   17   18 1
  28   17   34 1
  29   18   19 1
  30   18   20 1
  31   18   35 1
  32   19   21 1
  33   19   36 1
  34   19   37 1
  35   20   25 ar
  36   20   24 ar
  37   21   38 1
  38   21   39 1
  39   22   23 ar
  40   22   26 ar
  41   22   40 1
  42   23   24 ar
  43   23   41 1
  44   24   42 1
  45   25   26 ar
  46   25   43 1
  47   26   44 1

#	End of record

