#	Name: ASD00431197
#	Creating user name:	WinNT
#	Creation time:	15. 06. 2019 18:35

#	Modifying user name:	WinNT
#	Modification time:	15. 06. 2019 18:35

#	Program:	/corina/corina34_cracker 3.40 0067  02.08.2006

@<TRIPOS>MOLECULE
ASD00431197
  51   53    0    0    0
SMALL
NO_CHARGES


@<TRIPOS>ATOM
   1 C1            -0.3796     1.6868    -0.5733 C.2     
   2 C2            -0.5986     0.2329    -0.9041 C.3     
   3 O3             0.7314     2.0842    -0.2930 O.2     
   4 N4            -1.4174     2.5464    -0.5945 N.am    
   5 C5            -1.2046     3.9597    -0.2729 C.3     
   6 C6            -0.7507     4.7058    -1.5292 C.3     
   7 O7            -3.7064     4.3945    -0.3040 O.3     
   8 N8            -4.5313     5.0100     0.3377 N.2     
   9 C9            -3.9518     5.6289     1.3376 C.2     
  10 N10           -2.6304     5.3403     1.2722 N.2     
  11 C11           -2.4921     4.5599     0.2302 C.2     
  12 S12           -3.8250     7.3085     3.6845 S.3     
  13 C13           -5.3274     7.9493     4.1889 C.2     
  14 N14           -6.2758     7.5490     3.3986 N.2     
  15 C15           -5.9336     6.7630     2.4021 C.2     
  16 C16           -4.6150     6.4805     2.3449 C.2     
  17 O17           -5.5028     8.7590     5.2600 O.3     
  18 C18           -6.7741     9.1027     5.5990 C.ar    
  19 C19           -7.5898     8.1878     6.2488 C.ar    
  20 C20           -8.8807     8.5362     6.5938 C.ar    
  21 C21           -9.3623     9.8029     6.2902 C.ar    
  22 C22           -8.5452    10.7182     5.6397 C.ar    
  23 C23           -7.2527    10.3700     5.3000 C.ar    
  24 N24          -10.6702    10.1566     6.6390 N.pl3   
  25 C25          -11.1779    11.4929     6.3185 C.3     
  26 C26          -12.6232    11.6194     6.8043 C.3     
  27 C27          -13.1122    13.0521     6.5826 C.3     
  28 C28          -13.5113    10.6505     6.0212 C.3     
  29 H29            0.3494    -0.3011    -0.8398 H       
  30 H30           -1.3071    -0.1980    -0.1966 H       
  31 H31           -0.9966     0.1463    -1.9151 H       
  32 H32           -2.3053     2.2293    -0.8226 H       
  33 H33           -0.4382     4.0457     0.4974 H       
  34 H34           -0.5923     5.7574    -1.2900 H       
  35 H35            0.1805     4.2717    -1.8931 H       
  36 H36           -1.5171     4.6199    -2.2996 H       
  37 H37           -6.6470     6.3761     1.6895 H       
  38 H38           -7.2152     7.2026     6.4845 H       
  39 H39           -9.5157     7.8238     7.0993 H       
  40 H40           -8.9191    11.7033     5.4029 H       
  41 H41           -6.6157    11.0832     4.7982 H       
  42 H42          -11.2409     9.5170     7.0930 H       
  43 H43          -10.5615    12.2439     6.8125 H       
  44 H44          -11.1425    11.6460     5.2398 H       
  45 H45          -12.6718    11.3792     7.8664 H       
  46 H46          -13.0636    13.2923     5.5205 H       
  47 H47          -14.1418    13.1423     6.9288 H       
  48 H48          -12.4795    13.7424     7.1405 H       
  49 H49          -13.1629     9.6298     6.1792 H       
  50 H50          -14.5409    10.7406     6.3673 H       
  51 H51          -13.4627    10.8907     4.9591 H       
@<TRIPOS>BOND
   1    1    2 1
   2    1    3 2
   3    1    4 am
   4    2   29 1
   5    2   30 1
   6    2   31 1
   7    4    5 1
   8    4   32 1
   9    5    6 1
  10    5   11 1
  11    5   33 1
  12    6   34 1
  13    6   35 1
  14    6   36 1
  15    7    8 1
  16    7   11 1
  17    8    9 2
  18    9   10 1
  19    9   16 1
  20   10   11 2
  21   12   13 1
  22   12   16 1
  23   13   14 2
  24   13   17 1
  25   14   15 1
  26   15   16 2
  27   15   37 1
  28   17   18 1
  29   18   19 ar
  30   18   23 ar
  31   19   20 ar
  32   19   38 1
  33   20   21 ar
  34   20   39 1
  35   21   22 ar
  36   21   24 1
  37   22   23 ar
  38   22   40 1
  39   23   41 1
  40   24   25 1
  41   24   42 1
  42   25   26 1
  43   25   43 1
  44   25   44 1
  45   26   27 1
  46   26   28 1
  47   26   45 1
  48   27   46 1
  49   27   47 1
  50   27   48 1
  51   28   49 1
  52   28   50 1
  53   28   51 1

#	End of record

