#	Name: ASD08178074
#	Creating user name:	WinNT
#	Creation time:	15. 06. 2019 21:18

#	Modifying user name:	WinNT
#	Modification time:	15. 06. 2019 21:18

#	Program:	/corina/corina34_cracker 3.40 0067  02.08.2006

@<TRIPOS>MOLECULE
ASD08178074
  71   74    0    0    0
SMALL
NO_CHARGES


@<TRIPOS>ATOM
   1 N1            -0.0150     1.2583     0.0090 N.2     
   2 N2             0.0021    -0.0041     0.0020 N.2     
   3 C3             1.1271     1.8769     0.0014 C.2     
   4 S4             2.3826     0.7116    -0.0169 S.3     
   5 C5             1.1681    -0.5677    -0.0121 C.2     
   6 N6             1.3017     3.2566     0.0067 N.am    
   7 C7             0.2284     4.0717     0.0214 C.2     
   8 O8            -0.8897     3.6019     0.0299 O.2     
   9 C9             1.4387    -2.0502    -0.0227 C.3     
  10 C10            1.5165    -2.5442    -1.4687 C.3     
  11 C11            1.8986    -4.7206    -3.2516 C.3     
  12 C12            2.1699    -6.2152    -3.4347 C.3     
  13 C13            2.2167    -6.5408    -4.9053 C.2     
  14 N14            3.2694    -6.5184    -5.6596 N.2     
  15 S15            0.8491    -7.0282    -5.9071 S.3     
  16 C16            1.9000    -7.1354    -7.2557 C.2     
  17 N17            3.1017    -6.8250    -6.8728 N.2     
  18 N18            1.5289    -7.4992    -8.5457 N.am    
  19 C19            2.4537    -7.5464    -9.5250 C.2     
  20 O20            3.6096    -7.2716    -9.2812 O.2     
  21 C21            2.0516    -7.9407   -10.9228 C.3     
  22 C22            0.4176     5.5667     0.0272 C.3     
  23 C23            1.0890     5.9832     1.3105 C.ar    
  24 C24            1.5836    -9.3731   -10.9257 C.ar    
  25 C25            2.5069   -10.4019   -10.9326 C.ar    
  26 C26            2.4470     6.2410     1.3280 C.ar    
  27 C27            3.0628     6.6229     2.5052 C.ar    
  28 C28            2.3206     6.7475     3.6647 C.ar    
  29 C29            0.9625     6.4905     3.6470 C.ar    
  30 C30            0.3458     6.1128     2.4688 C.ar    
  31 C31            0.2310    -9.6584   -10.9158 C.ar    
  32 C32           -0.1983   -10.9724   -10.9186 C.ar    
  33 C33            0.7250   -12.0011   -10.9316 C.ar    
  34 C34            2.0776   -11.7159   -10.9353 C.ar    
  35 O35            3.1914    -7.8020   -11.8116 O.3     
  36 S36            1.8422    -4.3286    -1.4814 S.3     
  37 O37           -0.8757     6.2187    -0.0762 O.3     
  38 C38           -1.3267     6.4853    -1.3120 C.2     
  39 O39           -0.6629     6.1839    -2.2755 O.2     
  40 C40           -2.6611     7.1606    -1.4977 C.3     
  41 C41            3.3543    -6.6130   -12.4128 C.2     
  42 O42            2.5704    -5.7177   -12.2033 O.2     
  43 C43            4.5148    -6.3948   -13.3490 C.3     
  44 H44            2.1959     3.6323    -0.0001 H       
  45 H45            2.3843    -2.2506     0.4811 H       
  46 H46            0.6334    -2.5702     0.4961 H       
  47 H47            0.5709    -2.3438    -1.9724 H       
  48 H48            2.3218    -2.0242    -1.9874 H       
  49 H49            2.6943    -4.1461    -3.7258 H       
  50 H50            0.9434    -4.4658    -3.7108 H       
  51 H51            3.1250    -6.4700    -2.9755 H       
  52 H52            1.3741    -6.7896    -2.9605 H       
  53 H53            0.6045    -7.7190    -8.7407 H       
  54 H54            1.2436    -7.2938   -11.2645 H       
  55 H55            1.0397     5.8575    -0.8193 H       
  56 H56            3.5637   -10.1791   -10.9362 H       
  57 H57            3.0268     6.1437     0.4221 H       
  58 H58            4.1239     6.8237     2.5191 H       
  59 H59            2.8019     7.0452     4.5846 H       
  60 H60            0.3827     6.5874     4.5530 H       
  61 H61           -0.7153     5.9120     2.4550 H       
  62 H62           -0.4903    -8.8547   -10.9056 H       
  63 H63           -1.2550   -11.1953   -10.9101 H       
  64 H64            0.3896   -13.0277   -10.9335 H       
  65 H65            2.7990   -12.5196   -10.9455 H       
  66 H66           -3.1094     7.3535    -0.5231 H       
  67 H67           -2.5207     8.1035    -2.0262 H       
  68 H68           -3.3183     6.5131    -2.0782 H       
  69 H69            4.4522    -7.1018   -14.1763 H       
  70 H70            4.4817    -5.3769   -13.7376 H       
  71 H71            5.4500    -6.5478   -12.8103 H       
@<TRIPOS>BOND
   1    1    2 1
   2    1    3 2
   3    2    5 2
   4    3    4 1
   5    3    6 1
   6    4    5 1
   7    5    9 1
   8    6    7 am
   9    6   44 1
  10    7    8 2
  11    7   22 1
  12    9   10 1
  13    9   45 1
  14    9   46 1
  15   10   36 1
  16   10   47 1
  17   10   48 1
  18   11   12 1
  19   11   36 1
  20   11   49 1
  21   11   50 1
  22   12   13 1
  23   12   51 1
  24   12   52 1
  25   13   14 2
  26   13   15 1
  27   14   17 1
  28   15   16 1
  29   16   17 2
  30   16   18 1
  31   18   19 am
  32   18   53 1
  33   19   20 2
  34   19   21 1
  35   21   35 1
  36   21   24 1
  37   21   54 1
  38   22   23 1
  39   22   37 1
  40   22   55 1
  41   23   26 ar
  42   23   30 ar
  43   24   31 ar
  44   24   25 ar
  45   25   34 ar
  46   25   56 1
  47   26   27 ar
  48   26   57 1
  49   27   28 ar
  50   27   58 1
  51   28   29 ar
  52   28   59 1
  53   29   30 ar
  54   29   60 1
  55   30   61 1
  56   31   32 ar
  57   31   62 1
  58   32   33 ar
  59   32   63 1
  60   33   34 ar
  61   33   64 1
  62   34   65 1
  63   35   41 1
  64   37   38 1
  65   38   39 2
  66   38   40 1
  67   40   66 1
  68   40   67 1
  69   40   68 1
  70   41   42 2
  71   41   43 1
  72   43   69 1
  73   43   70 1
  74   43   71 1

#	End of record

