#	Name: ASD03092742
#	Creating user name:	WinNT
#	Creation time:	15. 06. 2019 20:33

#	Modifying user name:	WinNT
#	Modification time:	15. 06. 2019 20:33

#	Program:	/corina/corina34_cracker 3.40 0067  02.08.2006

@<TRIPOS>MOLECULE
ASD03092742
  41   44    0    0    0
SMALL
NO_CHARGES


@<TRIPOS>ATOM
   1 C1            -0.0169     1.3959     0.0097 C.ar    
   2 N2             0.0021    -0.0041     0.0020 N.pl3   
   3 C3             1.2777    -0.7524    -0.0261 C.3     
   4 C4             2.2601     0.0848     0.7736 C.3     
   5 C5             2.4435     1.4001    -0.0413 C.3     
   6 C6             1.1659     2.1436     0.0024 C.ar    
   7 C7             3.7281    -0.3620     0.7663 C.3     
   8 C8             4.4564     0.9703     0.9543 C.2     
   9 C9             3.7024     1.9669     0.5064 C.2     
  10 C10            1.1116     3.5203     0.0322 C.ar    
  11 C11           -0.1084     4.1703     0.0576 C.ar    
  12 C12           -1.2817     3.4380     0.0526 C.ar    
  13 C13           -1.2380     2.0593     0.0308 C.ar    
  14 C14            1.1025    -2.1045     0.6159 C.ar    
  15 C15            1.7136    -3.2155     0.0650 C.ar    
  16 C16            1.5535    -4.4557     0.6538 C.ar    
  17 C17            0.7818    -4.5852     1.7944 C.ar    
  18 C18            0.1706    -3.4733     2.3453 C.ar    
  19 C19            0.3355    -2.2326     1.7588 C.ar    
  20 Br20           0.5619    -6.2818     2.6000 Br      
  21 S21           -0.1685     5.9308     0.0969 S.o2    
  22 O22           -1.4262     6.2769     0.6606 O.2     
  23 O23            1.0717     6.3626     0.6397 O.2     
  24 N24           -0.1996     6.4554    -1.4735 N.am    
  25 H25           -0.8362    -0.4919     0.0157 H       
  26 H26            1.6264    -0.8639    -1.0528 H       
  27 H27            1.8908     0.2781     1.7808 H       
  28 H28            2.6375     1.1214    -1.0771 H       
  29 H29            3.9342    -1.0401     1.5944 H       
  30 H30            3.9922    -0.8203    -0.1868 H       
  31 H31            5.4389     1.0834     1.3883 H       
  32 H32            3.9612     3.0150     0.5355 H       
  33 H33            2.0265     4.0943     0.0361 H       
  34 H34           -2.2343     3.9466     0.0670 H       
  35 H35           -2.1573     1.4926     0.0276 H       
  36 H36            2.3158    -3.1143    -0.8258 H       
  37 H37            2.0306    -5.3236     0.2231 H       
  38 H38           -0.4323    -3.5739     3.2357 H       
  39 H39           -0.1417    -1.3644     2.1889 H       
  40 H40           -0.1836     5.8128    -2.1999 H       
  41 H41           -0.2338     7.4053    -1.6669 H       
@<TRIPOS>BOND
   1    1    2 1
   2    1    6 ar
   3    1   13 ar
   4    2    3 1
   5    2   25 1
   6    3    4 1
   7    3   14 1
   8    3   26 1
   9    4    5 1
  10    4    7 1
  11    4   27 1
  12    5    6 1
  13    5    9 1
  14    5   28 1
  15    6   10 ar
  16    7    8 1
  17    7   29 1
  18    7   30 1
  19    8    9 2
  20    8   31 1
  21    9   32 1
  22   10   11 ar
  23   10   33 1
  24   11   12 ar
  25   11   21 1
  26   12   13 ar
  27   12   34 1
  28   13   35 1
  29   14   15 ar
  30   14   19 ar
  31   15   16 ar
  32   15   36 1
  33   16   17 ar
  34   16   37 1
  35   17   18 ar
  36   17   20 1
  37   18   19 ar
  38   18   38 1
  39   19   39 1
  40   21   22 2
  41   21   23 2
  42   21   24 am
  43   24   40 1
  44   24   41 1

#	End of record

