#	Name: ASD01901013
#	Creating user name:	WinNT
#	Creation time:	15. 06. 2019 19:53

#	Modifying user name:	WinNT
#	Modification time:	15. 06. 2019 19:53

#	Program:	/corina/corina34_cracker 3.40 0067  02.08.2006

@<TRIPOS>MOLECULE
ASD01901013
  30   31    0    0    0
SMALL
NO_CHARGES


@<TRIPOS>ATOM
   1 C1            -0.0159     1.3212     0.0093 C.ar    
   2 N2             0.0021    -0.0041     0.0020 N.ar    
   3 C3             1.1503    -0.6721    -0.0125 C.ar    
   4 C4             2.3472     0.0364    -0.0201 C.ar    
   5 C5             2.2920     1.4331    -0.0121 C.ar    
   6 N6             1.0986     2.0335     0.0025 N.ar    
   7 N7            -1.2343     1.9777     0.0186 N.pl3   
   8 C8             3.5303     2.2305    -0.0191 C.2     
   9 C9             3.4652     3.5721    -0.0113 C.2     
  10 C10            4.7042     4.3699    -0.0183 C.ar    
  11 C11            4.6404     5.7659    -0.0102 C.ar    
  12 C12            5.8042     6.5059    -0.0169 C.ar    
  13 C13            7.0329     5.8694    -0.0317 C.ar    
  14 C14            7.1038     4.4875    -0.0398 C.ar    
  15 C15            5.9486     3.7341    -0.0274 C.ar    
  16 O16            1.1554    -2.0274    -0.0194 O.3     
  17 C17           -0.1154    -2.6810    -0.0103 C.3     
  18 H18            3.2958    -0.4798    -0.0316 H       
  19 H19           -2.0598     1.4683     0.0197 H       
  20 H20           -1.2627     2.9473     0.0240 H       
  21 H21            4.4906     1.7365    -0.0306 H       
  22 H22            2.5049     4.0661     0.0001 H       
  23 H23            3.6822     6.2640     0.0009 H       
  24 H24            5.7565     7.5849    -0.0111 H       
  25 H25            7.9409     6.4542    -0.0372 H       
  26 H26            8.0663     3.9976    -0.0512 H       
  27 H27            6.0056     2.6557    -0.0288 H       
  28 H28            0.0315    -3.7611    -0.0172 H       
  29 H29           -0.6648    -2.3948     0.8865 H       
  30 H30           -0.6821    -2.3858    -0.8934 H       
@<TRIPOS>BOND
   1    1    2 ar
   2    1    6 ar
   3    1    7 1
   4    2    3 ar
   5    3    4 ar
   6    3   16 1
   7    4    5 ar
   8    4   18 1
   9    5    6 ar
  10    5    8 1
  11    7   19 1
  12    7   20 1
  13    8    9 2
  14    8   21 1
  15    9   10 1
  16    9   22 1
  17   10   11 ar
  18   10   15 ar
  19   11   12 ar
  20   11   23 1
  21   12   13 ar
  22   12   24 1
  23   13   14 ar
  24   13   25 1
  25   14   15 ar
  26   14   26 1
  27   15   27 1
  28   16   17 1
  29   17   28 1
  30   17   29 1
  31   17   30 1

#	End of record

