#	Name: ASD01880051
#	Creating user name:	WinNT
#	Creation time:	15. 06. 2019 19:39

#	Modifying user name:	WinNT
#	Modification time:	15. 06. 2019 19:39

#	Program:	/corina/corina34_cracker 3.40 0067  02.08.2006

@<TRIPOS>MOLECULE
ASD01880051
  62   64    0    0    0
SMALL
NO_CHARGES


@<TRIPOS>ATOM
   1 C1            -0.0216     1.3872    -0.0936 C.ar    
   2 C2            -0.0021    -0.0009    -0.0851 C.ar    
   3 C3             1.2083    -0.6807    -0.0900 C.ar    
   4 C4             2.3951     0.0216    -0.1032 C.ar    
   5 C5             2.3785     1.4149    -0.1117 C.ar    
   6 C6             1.1621     2.0947    -0.1067 C.ar    
   7 O7            -1.1699    -0.6954    -0.0717 O.3     
   8 C8            -1.0766    -2.1213    -0.0636 C.3     
   9 C9            -2.4827    -2.7243    -0.0488 C.3     
  10 C10           -2.3828    -4.2510    -0.0402 C.3     
  11 C11           -3.7889    -4.8540    -0.0254 C.3     
  12 O12           -3.6956    -6.2800    -0.0173 O.3     
  13 C13           -4.8616    -6.9734    -0.0039 C.ar    
  14 C14           -6.0743    -6.2893     0.0014 C.ar    
  15 C15           -7.2540    -6.9751     0.0154 C.ar    
  16 C16           -7.2513    -8.3764     0.0245 C.ar    
  17 C17           -6.0276    -9.0704     0.0187 C.ar    
  18 C18           -4.8396    -8.3610    -0.0012 C.ar    
  19 O19           -6.0124   -10.4264     0.0278 O.3     
  20 C20           -8.5164    -9.1149     0.0404 C.2     
  21 C21           -9.8210    -8.3720     0.1722 C.3     
  22 C22            3.6542     2.1736    -0.1254 C.2     
  23 N23            4.8920     1.6588    -0.1315 N.2     
  24 N24            5.7184     2.6490    -0.1437 N.2     
  25 N25            5.0515     3.7501    -0.1455 N.pl3   
  26 N26            3.7904     3.4847    -0.1398 N.2     
  27 O27           -8.5139   -10.3247    -0.0524 O.2     
  28 C28           -3.5232    -9.0945    -0.0081 C.3     
  29 C29           -3.0932    -9.3572    -1.4527 C.3     
  30 C30           -1.7567   -10.1019    -1.4597 C.3     
  31 C31           -1.3267   -10.3645    -2.9044 C.3     
  32 C32            0.0098   -11.1092    -2.9114 C.3     
  33 H33           -0.9647     1.9135    -0.0943 H       
  34 H34            1.2205    -1.7606    -0.0831 H       
  35 H35            3.3364    -0.5077    -0.1066 H       
  36 H36            1.1464     3.1746    -0.1136 H       
  37 H37           -0.5472    -2.4558    -0.9557 H       
  38 H38           -0.5332    -2.4449     0.8242 H       
  39 H39           -3.0121    -2.3898     0.8433 H       
  40 H40           -3.0261    -2.4008    -0.9366 H       
  41 H41           -1.8534    -4.5856    -0.9323 H       
  42 H42           -1.8394    -4.5746     0.8476 H       
  43 H43           -4.3183    -4.5195     0.8667 H       
  44 H44           -4.3323    -4.5305    -0.9132 H       
  45 H45           -6.0813    -5.2094    -0.0052 H       
  46 H46           -8.1906    -6.4373     0.0198 H       
  47 H47           -6.0156   -10.8257    -0.8529 H       
  48 H48           -9.6211    -7.3132     0.3366 H       
  49 H49          -10.4026    -8.4944    -0.7415 H       
  50 H50          -10.3827    -8.7711     1.0167 H       
  51 H51            5.4376     4.6399    -0.1536 H       
  52 H52           -2.7672    -8.4889     0.4916 H       
  53 H53           -3.6333   -10.0437     0.5165 H       
  54 H54           -3.8492    -9.9629    -1.9524 H       
  55 H55           -2.9830    -8.4081    -1.9773 H       
  56 H56           -1.0007    -9.4962    -0.9600 H       
  57 H57           -1.8669   -11.0510    -0.9352 H       
  58 H58           -2.0828   -10.9702    -3.4041 H       
  59 H59           -1.2166    -9.4154    -3.4289 H       
  60 H60            0.3161   -11.2963    -3.9406 H       
  61 H61            0.7658   -10.5035    -2.4117 H       
  62 H62           -0.1004   -12.0583    -2.3868 H       
@<TRIPOS>BOND
   1    1    2 ar
   2    1    6 ar
   3    1   33 1
   4    2    3 ar
   5    2    7 1
   6    3    4 ar
   7    3   34 1
   8    4    5 ar
   9    4   35 1
  10    5    6 ar
  11    5   22 1
  12    6   36 1
  13    7    8 1
  14    8    9 1
  15    8   37 1
  16    8   38 1
  17    9   10 1
  18    9   39 1
  19    9   40 1
  20   10   11 1
  21   10   41 1
  22   10   42 1
  23   11   12 1
  24   11   43 1
  25   11   44 1
  26   12   13 1
  27   13   14 ar
  28   13   18 ar
  29   14   15 ar
  30   14   45 1
  31   15   16 ar
  32   15   46 1
  33   16   17 ar
  34   16   20 1
  35   17   18 ar
  36   17   19 1
  37   18   28 1
  38   19   47 1
  39   20   21 1
  40   20   27 2
  41   21   48 1
  42   21   49 1
  43   21   50 1
  44   22   23 1
  45   22   26 2
  46   23   24 2
  47   24   25 1
  48   25   26 1
  49   25   51 1
  50   28   29 1
  51   28   52 1
  52   28   53 1
  53   29   30 1
  54   29   54 1
  55   29   55 1
  56   30   31 1
  57   30   56 1
  58   30   57 1
  59   31   32 1
  60   31   58 1
  61   31   59 1
  62   32   60 1
  63   32   61 1
  64   32   62 1

#	End of record

