#	Name: ASD01881699
#	Creating user name:	WinNT
#	Creation time:	15. 06. 2019 19:43

#	Modifying user name:	WinNT
#	Modification time:	15. 06. 2019 19:43

#	Program:	/corina/corina34_cracker 3.40 0067  02.08.2006

@<TRIPOS>MOLECULE
ASD01881699
  49   52    0    0    0
SMALL
NO_CHARGES


@<TRIPOS>ATOM
   1 N1            -0.0727     1.2938     0.6841 N.pl3   
   2 N2            -0.0760     0.0300     0.9335 N.2     
   3 N3             1.1174    -0.4460     1.0016 N.2     
   4 C4             2.0045     0.5463     0.7867 C.ar    
   5 C5             1.2338     1.7052     0.5748 C.ar    
   6 C6             3.3988     0.6279     0.7409 C.ar    
   7 C7             4.0002     1.8450     0.4883 C.ar    
   8 C8             3.2265     2.9844     0.2802 C.ar    
   9 C9             1.8617     2.9178     0.3216 C.ar    
  10 O10            5.3565     1.9319     0.4427 O.3     
  11 C11            5.9155     3.2199     0.1769 C.3     
  12 N12            9.9950     4.0270     1.1649 N.3     
  13 C13            9.5667     4.3823    -0.1941 C.3     
  14 C14            8.0396     4.4704    -0.2425 C.3     
  15 C15            7.4423     3.1205     0.1645 C.3     
  16 C16            7.9424     2.7510     1.5638 C.3     
  17 C17            9.4723     2.7128     1.5598 C.3     
  18 C18           11.4586     4.0688     1.2834 C.3     
  19 C19           11.9208     5.5238     1.3838 C.3     
  20 F20           11.2412     6.1579     2.4294 F       
  21 F21           13.2971     5.5598     1.6326 F       
  22 F22           11.6469     6.1842     0.1813 F       
  23 C23           -1.2567     2.1438     0.5364 C.3     
  24 C24           -1.6447     2.7194     1.9000 C.3     
  25 C25           -2.7919     3.7309     1.9393 C.3     
  26 C26           -3.0023     2.3142     2.4774 C.3     
  27 Br27           4.4537    -0.9159     1.0233 Br      
  28 H28            3.7097     3.9301     0.0839 H       
  29 H29            1.2722     3.8078     0.1585 H       
  30 H30            5.5666     3.5743    -0.7930 H       
  31 H31            5.6032     3.9187     0.9530 H       
  32 H32            9.9949     5.3461    -0.4696 H       
  33 H33            9.9088     3.6197    -0.8937 H       
  34 H34            7.6976     5.2424     0.4468 H       
  35 H35            7.7213     4.7187    -1.2549 H       
  36 H36            7.7517     2.3556    -0.5477 H       
  37 H37            7.5988     3.4960     2.2815 H       
  38 H38            7.5546     1.7710     1.8418 H       
  39 H39            9.8149     1.9580     0.8519 H       
  40 H40            9.8319     2.4640     2.5582 H       
  41 H41           11.7663     3.5272     2.1779 H       
  42 H42           11.9076     3.6047     0.4052 H       
  43 H43           -1.0351     2.9590    -0.1523 H       
  44 H44           -2.0829     1.5510     0.1439 H       
  45 H45           -0.8222     2.8637     2.6005 H       
  46 H46           -2.7244     4.5404     2.6660 H       
  47 H47           -3.2703     3.9863     0.9938 H       
  48 H48           -3.6192     1.6376     1.8860 H       
  49 H49           -3.0732     2.1917     3.5582 H       
@<TRIPOS>BOND
   1    1    2 1
   2    1    5 1
   3    1   23 1
   4    2    3 2
   5    3    4 1
   6    4    5 ar
   7    4    6 ar
   8    5    9 ar
   9    6    7 ar
  10    6   27 1
  11    7    8 ar
  12    7   10 1
  13    8    9 ar
  14    8   28 1
  15    9   29 1
  16   10   11 1
  17   11   15 1
  18   11   30 1
  19   11   31 1
  20   12   13 1
  21   12   17 1
  22   12   18 1
  23   13   14 1
  24   13   32 1
  25   13   33 1
  26   14   15 1
  27   14   34 1
  28   14   35 1
  29   15   16 1
  30   15   36 1
  31   16   17 1
  32   16   37 1
  33   16   38 1
  34   17   39 1
  35   17   40 1
  36   18   19 1
  37   18   41 1
  38   18   42 1
  39   19   20 1
  40   19   21 1
  41   19   22 1
  42   23   24 1
  43   23   43 1
  44   23   44 1
  45   24   25 1
  46   24   26 1
  47   24   45 1
  48   25   26 1
  49   25   46 1
  50   25   47 1
  51   26   48 1
  52   26   49 1

#	End of record

