#	Name: ASD01840442
#	Creating user name:	WinNT
#	Creation time:	15. 06. 2019 19:37

#	Modifying user name:	WinNT
#	Modification time:	15. 06. 2019 19:37

#	Program:	/corina/corina34_cracker 3.40 0067  02.08.2006

@<TRIPOS>MOLECULE
ASD01840442
  43   45    0    0    0
SMALL
NO_CHARGES


@<TRIPOS>ATOM
   1 C1             0.2611     1.7552    -0.9980 C.ar    
   2 C2             0.3841     0.5320    -1.6195 C.ar    
   3 N3             1.4990    -0.1677    -1.4965 N.ar    
   4 N4             2.4999     0.2427    -0.8111 N.ar    
   5 C5             1.3546     2.2267    -0.2364 C.ar    
   6 C6             1.5104     3.4570     0.5171 C.2     
   7 C7             2.4928     1.4121    -0.1670 C.ar    
   8 S8             3.7250     2.1824     0.8223 S.3     
   9 C9             2.7118     3.5783     1.1344 C.2     
  10 C10           -0.9999     2.5697    -1.1313 C.3     
  11 C11           -0.7562    -0.0106    -2.4419 C.3     
  12 N12            0.5179     4.4243     0.5985 N.pl3   
  13 C13            3.1102     4.7236     1.9514 C.2     
  14 O14            2.3404     5.6527     2.1138 O.2     
  15 N15            4.3297     4.7507     2.5248 N.am    
  16 C16            4.7288     5.8982     3.3434 C.3     
  17 C17            4.2634     5.7217     4.8129 C.3     
  18 C18            5.2854     6.5661     5.6030 C.3     
  19 N19            6.4861     6.6952     4.7644 N.am    
  20 C20            6.2680     5.9533     3.5092 C.3     
  21 S21            7.8560     7.5357     5.1632 S.o2    
  22 C22            8.9023     6.3201     6.0106 C.3     
  23 O23            8.4235     7.8954     3.9110 O.2     
  24 O24            7.4054     8.5278     6.0753 O.2     
  25 H25           -1.6441     2.3852    -0.2716 H       
  26 H26           -0.7456     3.6287    -1.1742 H       
  27 H27           -1.5220     2.2841    -2.0445 H       
  28 H28           -0.6493     0.3210    -3.4747 H       
  29 H29           -0.7433    -1.1000    -2.4068 H       
  30 H30           -1.7008     0.3547    -2.0389 H       
  31 H31           -0.4028     4.1923     0.4002 H       
  32 H32            0.7452     5.3322     0.8537 H       
  33 H33            4.9430     4.0104     2.3954 H       
  34 H34            4.3471     6.8280     2.9216 H       
  35 H35            3.2546     6.1120     4.9475 H       
  36 H36            4.3158     4.6746     5.1110 H       
  37 H37            4.8701     7.5524     5.8101 H       
  38 H38            5.5378     6.0642     6.5370 H       
  39 H39            6.6775     4.9462     3.5878 H       
  40 H40            6.7211     6.4836     2.6715 H       
  41 H41            9.1156     5.4911     5.3358 H       
  42 H42            9.8371     6.7928     6.3122 H       
  43 H43            8.3831     5.9461     6.8930 H       
@<TRIPOS>BOND
   1    1    2 ar
   2    1    5 ar
   3    1   10 1
   4    2   11 1
   5    2    3 ar
   6    3    4 ar
   7    4    7 ar
   8    5    7 ar
   9    5    6 1
  10    6    9 2
  11    6   12 1
  12    7    8 1
  13    8    9 1
  14    9   13 1
  15   10   25 1
  16   10   26 1
  17   10   27 1
  18   11   28 1
  19   11   29 1
  20   11   30 1
  21   12   31 1
  22   12   32 1
  23   13   14 2
  24   13   15 am
  25   15   16 1
  26   15   33 1
  27   16   17 1
  28   16   20 1
  29   16   34 1
  30   17   18 1
  31   17   35 1
  32   17   36 1
  33   18   19 1
  34   18   37 1
  35   18   38 1
  36   19   20 1
  37   19   21 am
  38   20   39 1
  39   20   40 1
  40   21   22 1
  41   21   23 2
  42   21   24 2
  43   22   41 1
  44   22   42 1
  45   22   43 1

#	End of record

