#	Name: ASD03740268
#	Creating user name:	WinNT
#	Creation time:	15. 06. 2019 20:47

#	Modifying user name:	WinNT
#	Modification time:	15. 06. 2019 20:47

#	Program:	/corina/corina34_cracker 3.40 0067  02.08.2006

@<TRIPOS>MOLECULE
ASD03740268
  48   51    0    0    0
SMALL
NO_CHARGES


@<TRIPOS>ATOM
   1 C1             0.2570     1.5335     0.2889 C.ar    
   2 C2             3.4840     2.1160    -6.6545 C.ar    
   3 C3             0.1843     0.1548     0.2189 C.ar    
   4 C4             1.4876     2.1627     0.2680 C.ar    
   5 C5             4.3957     2.5841    -7.5835 C.ar    
   6 C6             3.8729     1.2551    -5.6525 C.ar    
   7 C7             1.3423    -0.5946     0.1280 C.ar    
   8 C8             2.6456     1.4132     0.1771 C.ar    
   9 C9             5.7214     2.1811    -7.5038 C.ar    
  10 C10            5.2085     0.8370    -5.5571 C.ar    
  11 C11            2.5729     0.0346     0.1066 C.ar    
  12 C12            6.1094     1.3280    -6.5113 C.ar    
  13 C13            5.8614    -0.0632    -4.5926 C.2     
  14 C14            5.0837    -0.6877    -3.5051 C.2     
  15 C15            4.3681    -1.8418    -3.6096 C.2     
  16 C16            4.9645    -0.1676    -2.1407 C.2     
  17 C17            3.7458    -2.0869    -2.2542 C.3     
  18 C18            3.8235    -4.5596    -2.6038 C.3     
  19 C19            5.7675    -3.3831    -1.5650 C.3     
  20 C20            3.8354    -0.7825     0.0086 C.3     
  21 C21            4.2421    -3.4150    -1.6789 C.3     
  22 N22            7.1311    -0.2991    -4.7141 N.am    
  23 N23            4.1838    -0.9755    -1.4012 N.am    
  24 O24            5.4959     0.8488    -1.7346 O.2     
  25 O25            7.9945    -0.3522    -7.0598 O.2     
  26 O26            8.5009     1.6077    -5.5732 O.2     
  27 O27            4.2398    -2.6118    -4.7041 O.3     
  28 S28            7.6436     0.5765    -6.0432 S.o2    
  29 H29           -0.6479     2.1193     0.3553 H       
  30 H30            2.4533     2.4331    -6.7137 H       
  31 H31           -0.7772    -0.3368     0.2356 H       
  32 H32            1.5444     3.2398     0.3223 H       
  33 H33            4.0783     3.2587    -8.3649 H       
  34 H34            3.1462     0.9003    -4.9366 H       
  35 H35            1.2855    -1.6718     0.0741 H       
  36 H36            3.6071     1.9049     0.1601 H       
  37 H37            6.4420     2.5398    -8.2238 H       
  38 H38            2.6590    -2.0965    -2.3362 H       
  39 H39            2.7368    -4.5823    -2.6850 H       
  40 H40            4.2585    -4.4063    -3.5914 H       
  41 H41            4.1771    -5.5057    -2.1940 H       
  42 H42            6.0658    -2.5677    -0.9061 H       
  43 H43            6.1211    -4.3293    -1.1552 H       
  44 H44            6.2025    -3.2298    -2.5526 H       
  45 H45            4.6467    -0.2598     0.5151 H       
  46 H46            3.6779    -1.7526     0.4800 H       
  47 H47            3.8071    -3.5683    -0.6913 H       
  48 H48            4.6386    -2.2830    -5.5214 H       
@<TRIPOS>BOND
   1    1    3 ar
   2    1    4 ar
   3    1   29 1
   4    2    5 ar
   5    2    6 ar
   6    2   30 1
   7    3    7 ar
   8    3   31 1
   9    4    8 ar
  10    4   32 1
  11    5    9 ar
  12    5   33 1
  13    6   10 ar
  14    6   34 1
  15    7   11 ar
  16    7   35 1
  17    8   11 ar
  18    8   36 1
  19    9   12 ar
  20    9   37 1
  21   10   12 ar
  22   10   13 1
  23   11   20 1
  24   12   28 1
  25   13   14 1
  26   13   22 2
  27   14   15 2
  28   14   16 1
  29   15   17 1
  30   15   27 1
  31   16   23 am
  32   16   24 2
  33   17   21 1
  34   17   23 1
  35   17   38 1
  36   18   21 1
  37   18   39 1
  38   18   40 1
  39   18   41 1
  40   19   21 1
  41   19   42 1
  42   19   43 1
  43   19   44 1
  44   20   23 1
  45   20   45 1
  46   20   46 1
  47   21   47 1
  48   22   28 am
  49   25   28 2
  50   26   28 2
  51   27   48 1

#	End of record

