#	Name: ASD03081110
#	Creating user name:	WinNT
#	Creation time:	15. 06. 2019 20:26

#	Modifying user name:	WinNT
#	Modification time:	15. 06. 2019 20:26

#	Program:	/corina/corina34_cracker 3.40 0067  02.08.2006

@<TRIPOS>MOLECULE
ASD03081110
  16   16    0    0    0
SMALL
NO_CHARGES


@<TRIPOS>ATOM
   1 C1            -0.0169     1.3937     0.0097 C.ar    
   2 C2             0.0021    -0.0041     0.0020 C.ar    
   3 C3             1.2508    -0.6385    -0.0133 C.ar    
   4 C4             2.3814     0.1603    -0.0198 C.ar    
   5 N5             2.2601     1.4743    -0.0116 N.ar    
   6 N6             1.1197     2.0615     0.0024 N.ar    
   7 C7            -1.2553    -0.7874     0.0103 C.2     
   8 N8            -1.2117    -2.0867     0.0029 N.2     
   9 N9            -2.4770    -0.1357     0.0259 N.pl3   
  10 O10           -2.4135    -2.8354     0.0108 O.3     
  11 H11           -0.9578     1.9238     0.0171 H       
  12 H12            1.3291    -1.7157    -0.0195 H       
  13 H13            3.3622    -0.2916    -0.0313 H       
  14 H14           -2.5095     0.8337     0.0314 H       
  15 H15           -3.3003    -0.6486     0.0313 H       
  16 H16           -2.2802    -3.7932     0.0043 H       
@<TRIPOS>BOND
   1    1    2 ar
   2    1    6 ar
   3    1   11 1
   4    2    3 ar
   5    2    7 1
   6    3    4 ar
   7    3   12 1
   8    4    5 ar
   9    4   13 1
  10    5    6 ar
  11    7    8 2
  12    7    9 1
  13    8   10 1
  14    9   14 1
  15    9   15 1
  16   10   16 1

#	End of record

