#	Name: ASD01420041
#	Creating user name:	WinNT
#	Creation time:	15. 06. 2019 19:20

#	Modifying user name:	WinNT
#	Modification time:	15. 06. 2019 19:20

#	Program:	/corina/corina34_cracker 3.40 0067  02.08.2006

@<TRIPOS>MOLECULE
ASD01420041
  26   26    0    0    0
SMALL
NO_CHARGES


@<TRIPOS>ATOM
   1 C1            -0.0180     1.4763     0.0102 C.3     
   2 N2             0.0021    -0.0041     0.0020 N.3     
   3 C3             1.2741    -0.3384    -0.6778 C.3     
   4 C4             2.1990     0.8271    -0.4098 C.ar    
   5 C5             3.5723     0.9545    -0.5070 C.ar    
   6 C6             4.1791     2.1580    -0.1963 C.ar    
   7 C7             3.4123     3.2335     0.2116 C.ar    
   8 C8             2.0393     3.1064     0.3088 C.ar    
   9 C9             1.4319     1.9045    -0.0014 C.ar    
  10 Br10           4.6212    -0.5169    -1.0643 Br      
  11 H11           -0.5283     1.8508    -0.8772 H       
  12 H12           -0.5112     1.8412     0.9111 H       
  13 H13           -0.0130    -0.3711     0.9418 H       
  14 H14            1.6933    -1.2549    -0.2627 H       
  15 H15            1.1101    -0.4502    -1.7496 H       
  16 H16            5.2518     2.2573    -0.2719 H       
  17 H17            3.8860     4.1731     0.4546 H       
  18 H18            1.4408     3.9470     0.6276 H       
  19 C19           11.4233    11.1613     7.0886 C.2     
  20 C20           11.4437     9.6545     7.0803 C.3     
  21 O21           12.4613    11.7796     7.0820 O.2     
  22 O22           10.2518    11.8166     7.0977 O.3     
  23 F23           12.7689     9.2061     7.0653 F       
  24 F24           10.8016     9.1731     8.2262 F       
  25 F25           10.7797     9.1853     5.9418 F       
  26 H26           10.2894    12.7828     7.1028 H       
@<TRIPOS>BOND
   1    1    2 1
   2    1    9 1
   3    1   11 1
   4    1   12 1
   5    2    3 1
   6    2   13 1
   7    3    4 1
   8    3   14 1
   9    3   15 1
  10    4    5 ar
  11    4    9 ar
  12    5    6 ar
  13    5   10 1
  14    6    7 ar
  15    6   16 1
  16    7    8 ar
  17    7   17 1
  18    8    9 ar
  19    8   18 1
  20   19   20 1
  21   19   21 2
  22   19   22 1
  23   20   23 1
  24   20   24 1
  25   20   25 1
  26   22   26 1

#	End of record

