#	Name: ASD01912838
#	Creating user name:	WinNT
#	Creation time:	15. 06. 2019 20:00

#	Modifying user name:	WinNT
#	Modification time:	15. 06. 2019 20:00

#	Program:	/corina/corina34_cracker 3.40 0067  02.08.2006

@<TRIPOS>MOLECULE
ASD01912838
  45   48    0    0    0
SMALL
NO_CHARGES


@<TRIPOS>ATOM
   1 C1            -0.0165     1.3669     0.0096 C.2     
   2 N2             0.0021    -0.0041     0.0020 N.pl3   
   3 C3            -1.2023    -0.6921     0.0094 C.2     
   4 C4            -2.3629    -0.0499     0.0235 C.2     
   5 N5            -2.4359     1.3309     0.0312 N.am    
   6 C6            -1.3019     2.0668     0.0309 C.2     
   7 C7             1.3015     1.7836    -0.0008 C.2     
   8 C8             2.0550     0.6110    -0.0143 C.2     
   9 N9             1.2244    -0.4045    -0.0118 N.2     
  10 O10           -1.3488     3.2837     0.0375 O.2     
  11 C11           -3.6786     1.9639     0.0451 C.ar    
  12 C12            3.5595     0.5249    -0.0301 C.3     
  13 O13            4.1120     1.8427    -0.0292 O.3     
  14 C14            5.4672     1.9435    -0.0426 C.ar    
  15 C15            6.0711     3.1925    -0.0426 C.ar    
  16 C16            7.4489     3.2922    -0.0562 C.ar    
  17 C17            8.2259     2.1487    -0.0698 C.ar    
  18 C18            7.6265     0.9027    -0.0703 C.ar    
  19 C19            6.2491     0.7975    -0.0505 C.ar    
  20 N20           -3.7516     3.2860    -0.0477 N.ar    
  21 C21           -4.8420     1.2103     0.1505 C.ar    
  22 N22           -6.0198     1.8085     0.1634 N.ar    
  23 C23           -6.0968     3.1235     0.0768 C.ar    
  24 C24           -4.9358     3.8843    -0.0340 C.ar    
  25 N25           -5.0170     5.2689    -0.1248 N.pl3   
  26 C26           -6.3144     5.9367     0.0061 C.3     
  27 C27           -3.8052     6.0605    -0.3512 C.3     
  28 H28           -1.1950    -1.7721     0.0032 H       
  29 H29           -3.2784    -0.6228     0.0289 H       
  30 H30            1.6684     2.7994     0.0006 H       
  31 H31            3.9019    -0.0133     0.8538 H       
  32 H32            3.8837    -0.0045    -0.9260 H       
  33 H33            5.4646     4.0860    -0.0323 H       
  34 H34            7.9195     4.2643    -0.0566 H       
  35 H35            9.3029     2.2287    -0.0805 H       
  36 H36            8.2356     0.0109    -0.0817 H       
  37 H37            5.7814    -0.1759    -0.0508 H       
  38 H38           -4.7828     0.1343     0.2215 H       
  39 H39           -7.0613     3.6093     0.0876 H       
  40 H40           -6.4952     6.1771     1.0537 H       
  41 H41           -6.3116     6.8544    -0.5820 H       
  42 H42           -7.1015     5.2754    -0.3561 H       
  43 H43           -2.9446     5.3953    -0.4217 H       
  44 H44           -3.9068     6.6228    -1.2795 H       
  45 H45           -3.6628     6.7523     0.4789 H       
@<TRIPOS>BOND
   1    1    2 1
   2    1    7 2
   3    1    6 1
   4    2    3 1
   5    2    9 1
   6    3    4 2
   7    3   28 1
   8    4    5 1
   9    4   29 1
  10    5    6 am
  11    5   11 1
  12    6   10 2
  13    7    8 1
  14    7   30 1
  15    8    9 2
  16    8   12 1
  17   11   20 ar
  18   11   21 ar
  19   12   13 1
  20   12   31 1
  21   12   32 1
  22   13   14 1
  23   14   15 ar
  24   14   19 ar
  25   15   16 ar
  26   15   33 1
  27   16   17 ar
  28   16   34 1
  29   17   18 ar
  30   17   35 1
  31   18   19 ar
  32   18   36 1
  33   19   37 1
  34   20   24 ar
  35   21   22 ar
  36   21   38 1
  37   22   23 ar
  38   23   24 ar
  39   23   39 1
  40   24   25 1
  41   25   26 1
  42   25   27 1
  43   26   40 1
  44   26   41 1
  45   26   42 1
  46   27   43 1
  47   27   44 1
  48   27   45 1

#	End of record

