#	Name: ASD00071105
#	Creating user name:	WinNT
#	Creation time:	15. 06. 2019 18:30

#	Modifying user name:	WinNT
#	Modification time:	15. 06. 2019 18:30

#	Program:	/corina/corina34_cracker 3.40 0067  02.08.2006

@<TRIPOS>MOLECULE
ASD00071105
  49   52    0    0    0
SMALL
NO_CHARGES


@<TRIPOS>ATOM
   1 N1             0.0071     1.3178    -0.0563 N.4     
   2 N2             1.0976    -0.7417    -0.1735 N.2     
   3 C3            -0.0133    -0.0800    -0.0462 C.2     
   4 N4            -1.2050    -0.7416     0.0983 N.pl3   
   5 C5            -1.3716    -2.0489    -0.5550 C.3     
   6 C6            -0.0821    -2.8178    -0.3887 C.ar    
   7 C7            -0.0808    -4.1961    -0.4127 C.ar    
   8 C8             1.1046    -4.8912    -0.2714 C.ar    
   9 C9             2.3063    -4.1992    -0.1040 C.ar    
  10 C10            2.3093    -2.8063    -0.0746 C.ar    
  11 C11            1.1101    -2.1109    -0.2130 C.ar    
  12 C12            3.5747    -4.9447     0.0424 C.2     
  13 C13            3.6943    -6.2872     0.0301 C.2     
  14 C14            4.9839    -6.7526     0.1841 C.2     
  15 C15            5.9153    -5.8045     0.3216 C.2     
  16 S16            5.1622    -4.2168     0.2519 S.3     
  17 C17           -2.2918    -0.1582     0.8886 C.3     
  18 C18           -2.2509    -0.7162     2.2879 C.ar    
  19 C19           -1.4621    -0.1109     3.2540 C.ar    
  20 C20           -1.4261    -0.6267     4.5418 C.ar    
  21 C21           -2.1757    -1.7426     4.8615 C.ar    
  22 C22           -2.9627    -2.3477     3.9004 C.ar    
  23 C23           -3.0065    -1.8323     2.6127 C.ar    
  24 O24           -3.7850    -2.4245     1.6693 O.3     
  25 C25           -4.5366    -3.5704     2.0743 C.3     
  26 O26           -0.7243     0.9863     2.9401 O.3     
  27 C27            0.0651     1.5580     3.9850 C.3     
  28 H28            0.9427     1.6391    -0.2550 H       
  29 H29           -0.6234     1.6583    -0.7668 H       
  30 H30           -0.2834     1.6649     0.8454 H       
  31 H31           -2.1897    -2.5946    -0.0849 H       
  32 H32           -1.5826    -1.9074    -1.6150 H       
  33 H33           -1.0085    -4.7337    -0.5419 H       
  34 H34            1.1021    -5.9710    -0.2900 H       
  35 H35            3.2367    -2.2683     0.0553 H       
  36 H36            2.8475    -6.9465    -0.0905 H       
  37 H37            5.2230    -7.8058     0.1932 H       
  38 H38            6.9719    -5.9858     0.4525 H       
  39 H39           -2.1732     0.9247     0.9257 H       
  40 H40           -3.2486    -0.4033     0.4275 H       
  41 H41           -0.8115    -0.1558     5.2947 H       
  42 H42           -2.1461    -2.1428     5.8642 H       
  43 H43           -3.5477    -3.2198     4.1527 H       
  44 H44           -5.2144    -3.2936     2.8817 H       
  45 H45           -5.1130    -3.9445     1.2282 H       
  46 H46           -3.8555    -4.3473     2.4218 H       
  47 H47            0.7795     0.8184     4.3468 H       
  48 H48            0.6027     2.4251     3.6014 H       
  49 H49           -0.5846     1.8665     4.8040 H       
@<TRIPOS>BOND
   1    1    3 1
   2    1   28 1
   3    1   29 1
   4    1   30 1
   5    2    3 2
   6    2   11 1
   7    3    4 1
   8    4    5 1
   9    4   17 1
  10    5    6 1
  11    5   31 1
  12    5   32 1
  13    6    7 ar
  14    6   11 ar
  15    7    8 ar
  16    7   33 1
  17    8    9 ar
  18    8   34 1
  19    9   10 ar
  20    9   12 1
  21   10   11 ar
  22   10   35 1
  23   12   13 2
  24   12   16 1
  25   13   14 1
  26   13   36 1
  27   14   15 2
  28   14   37 1
  29   15   16 1
  30   15   38 1
  31   17   18 1
  32   17   39 1
  33   17   40 1
  34   18   19 ar
  35   18   23 ar
  36   19   20 ar
  37   19   26 1
  38   20   21 ar
  39   20   41 1
  40   21   22 ar
  41   21   42 1
  42   22   23 ar
  43   22   43 1
  44   23   24 1
  45   24   25 1
  46   25   44 1
  47   25   45 1
  48   25   46 1
  49   26   27 1
  50   27   47 1
  51   27   48 1
  52   27   49 1

#	End of record

