#	Name: ASD01870010
#	Creating user name:	WinNT
#	Creation time:	15. 06. 2019 19:38

#	Modifying user name:	WinNT
#	Modification time:	15. 06. 2019 19:38

#	Program:	/corina/corina34_cracker 3.40 0067  02.08.2006

@<TRIPOS>MOLECULE
ASD01870010
  43   45    0    0    0
SMALL
NO_CHARGES


@<TRIPOS>ATOM
   1 C1            -0.0166     1.3744     0.0096 C.ar    
   2 C2             0.0021    -0.0041     0.0020 C.ar    
   3 C3             1.2144    -0.6917    -0.0126 C.ar    
   4 C4             2.4085     0.0051    -0.0388 C.ar    
   5 C5             2.3769     1.3958    -0.0223 C.ar    
   6 C6             1.1767     2.0742     0.0020 C.ar    
   7 S7             1.1894    -2.4511     0.0256 S.3     
   8 C8             2.7740    -2.8642     0.6706 C.ar    
   9 C9             3.8388    -1.9884     0.5654 C.ar    
  10 C10            3.7449    -0.6584    -0.1078 C.3     
  11 C11            2.9412    -4.0982     1.2969 C.ar    
  12 C12            4.1656    -4.4526     1.8221 C.ar    
  13 C13            5.2305    -3.5747     1.7262 C.ar    
  14 C14            5.0679    -2.3549     1.1042 C.ar    
  15 C15            4.1093    -0.8366    -1.5592 C.2     
  16 N16            4.1018     0.2237    -2.3910 N.am    
  17 C17            4.4278     0.0643    -3.6890 C.2     
  18 O18            4.4203     1.1232    -4.5197 O.3     
  19 C19            4.7820     0.8774    -5.9043 C.3     
  20 O20            4.4093    -1.9339    -1.9785 O.2     
  21 O21            4.7283    -1.0350    -4.1091 O.2     
  22 C22            4.7170     2.1893    -6.6890 C.3     
  23 C23            5.0982     1.9303    -8.1480 C.3     
  24 C24            5.0331     3.2421    -8.9327 C.3     
  25 H25           -0.9573     1.9049     0.0170 H       
  26 H26           -0.9274    -0.5540     0.0078 H       
  27 H27            3.3034     1.9506    -0.0281 H       
  28 H28            1.1683     3.1541     0.0147 H       
  29 H29            4.4803     0.0066     0.3450 H       
  30 H30            2.1071    -4.7801     1.3715 H       
  31 H31            4.2927    -5.4098     2.3058 H       
  32 H32            6.1910    -3.8453     2.1393 H       
  33 H33            5.9048    -1.6757     1.0347 H       
  34 H34            3.8618     1.1017    -2.0556 H       
  35 H35            5.7947     0.4768    -5.9496 H       
  36 H36            4.0873     0.1590    -6.3393 H       
  37 H37            3.7043     2.5899    -6.6437 H       
  38 H38            5.4117     2.9077    -6.2540 H       
  39 H39            6.1109     1.5297    -8.1933 H       
  40 H40            4.4034     1.2118    -8.5830 H       
  41 H41            5.3047     3.0576    -9.9720 H       
  42 H42            4.0204     3.6428    -8.8874 H       
  43 H43            5.7279     3.9606    -8.4976 H       
@<TRIPOS>BOND
   1    1    2 ar
   2    1    6 ar
   3    1   25 1
   4    2    3 ar
   5    2   26 1
   6    3    4 ar
   7    3    7 1
   8    4    5 ar
   9    4   10 1
  10    5    6 ar
  11    5   27 1
  12    6   28 1
  13    7    8 1
  14    8    9 ar
  15    8   11 ar
  16    9   10 1
  17    9   14 ar
  18   10   15 1
  19   10   29 1
  20   11   12 ar
  21   11   30 1
  22   12   13 ar
  23   12   31 1
  24   13   14 ar
  25   13   32 1
  26   14   33 1
  27   15   16 am
  28   15   20 2
  29   16   17 am
  30   16   34 1
  31   17   18 1
  32   17   21 2
  33   18   19 1
  34   19   22 1
  35   19   35 1
  36   19   36 1
  37   22   23 1
  38   22   37 1
  39   22   38 1
  40   23   24 1
  41   23   39 1
  42   23   40 1
  43   24   41 1
  44   24   42 1
  45   24   43 1

#	End of record

