#	Name: ASD01913526
#	Creating user name:	WinNT
#	Creation time:	15. 06. 2019 20:01

#	Modifying user name:	WinNT
#	Modification time:	15. 06. 2019 20:01

#	Program:	/corina/corina34_cracker 3.40 0067  02.08.2006

@<TRIPOS>MOLECULE
ASD01913526
  34   35    0    0    0
SMALL
NO_CHARGES


@<TRIPOS>ATOM
   1 N1            -0.0169     1.3965     0.0097 N.2     
   2 N2             0.0021    -0.0041     0.0020 N.pl3   
   3 C3             1.2284     1.8226     0.0001 C.2     
   4 C4             2.0722     0.6950    -0.0140 C.2     
   5 C5             1.2909    -0.4070    -0.0125 C.2     
   6 C6             1.7727    -1.8348    -0.0243 C.3     
   7 C7             1.6661     3.2408     0.0036 C.ar    
   8 C8             3.0187     3.5548    -0.1133 C.ar    
   9 C9             3.4212     4.8744    -0.1096 C.ar    
  10 C10            2.4827     5.8868     0.0101 C.ar    
  11 C11            1.1372     5.5790     0.1269 C.ar    
  12 C12            0.7253     4.2619     0.1179 C.ar    
  13 C13            2.0682    -2.2852     1.4078 C.3     
  14 F14            2.8811     7.1777     0.0132 F       
  15 C15            0.1211     6.6842     0.2577 C.3     
  16 C16            2.4373    -3.7700     1.4095 C.3     
  17 C17            3.2344    -1.4691     1.9687 C.3     
  18 H18           -0.7755    -0.5839     0.0068 H       
  19 H19            3.1521     0.7089    -0.0246 H       
  20 H20            1.0024    -2.4747    -0.4548 H       
  21 H21            2.6810    -1.9068    -0.6225 H       
  22 H22            3.7509     2.7664    -0.2062 H       
  23 H23            4.4693     5.1187    -0.1997 H       
  24 H24           -0.3240     4.0227     0.2090 H       
  25 H25            1.1848    -2.1298     2.0271 H       
  26 H26           -0.2201     6.9833    -0.7334 H       
  27 H27           -0.7277     6.3300     0.8427 H       
  28 H28            0.5762     7.5388     0.7585 H       
  29 H29            3.3207    -3.9255     0.7901 H       
  30 H30            2.6478    -4.0909     2.4297 H       
  31 H31            1.6064    -4.3515     1.0098 H       
  32 H32            3.4449    -1.7900     2.9889 H       
  33 H33            4.1178    -1.6246     1.3493 H       
  34 H34            2.9714    -0.4113     1.9675 H       
@<TRIPOS>BOND
   1    1    2 1
   2    1    3 2
   3    2    5 1
   4    2   18 1
   5    3    4 1
   6    3    7 1
   7    4    5 2
   8    4   19 1
   9    5    6 1
  10    6   13 1
  11    6   20 1
  12    6   21 1
  13    7    8 ar
  14    7   12 ar
  15    8    9 ar
  16    8   22 1
  17    9   10 ar
  18    9   23 1
  19   10   11 ar
  20   10   14 1
  21   11   12 ar
  22   11   15 1
  23   12   24 1
  24   13   16 1
  25   13   17 1
  26   13   25 1
  27   15   26 1
  28   15   27 1
  29   15   28 1
  30   16   29 1
  31   16   30 1
  32   16   31 1
  33   17   32 1
  34   17   33 1
  35   17   34 1

#	End of record

