#	Name: ASD01913866
#	Creating user name:	WinNT
#	Creation time:	15. 06. 2019 20:02

#	Modifying user name:	WinNT
#	Modification time:	15. 06. 2019 20:02

#	Program:	/corina/corina34_cracker 3.40 0067  02.08.2006

@<TRIPOS>MOLECULE
ASD01913866
  43   45    0    0    0
SMALL
NO_CHARGES


@<TRIPOS>ATOM
   1 C1            -0.0176     1.4278     0.0039 C.ar    
   2 C2             0.0019    -0.0041    -0.0022 C.1     
   3 C3             0.0178    -1.1779    -0.0072 C.1     
   4 C4             0.0373    -2.6098    -0.0133 C.ar    
   5 C5            -1.1606    -3.3385     0.0313 C.ar    
   6 C6             0.1561    -5.3344    -0.0290 C.ar    
   7 N7             1.2696    -4.6187    -0.0761 N.ar    
   8 C8             1.2491    -3.3021    -0.0695 C.ar    
   9 C9            -1.0901    -4.7172     0.0229 C.ar    
  10 C10            1.1815     2.1474    -0.0408 C.ar    
  11 C11            1.1548     3.5289    -0.0351 C.ar    
  12 C12           -1.2345     2.1132     0.0486 C.ar    
  13 N13            0.2332    -6.7252    -0.0385 N.am    
  14 C14            0.3814    -7.3509     1.1298 C.2     
  15 C15            0.5265    -8.8399     1.2603 C.3     
  16 C16            0.0500    -9.5241    -0.0234 C.3     
  17 C17            0.7078    -8.8240    -1.2187 C.3     
  18 C18            0.1410    -7.4057    -1.3241 C.3     
  19 C19            0.4566   -10.9989    -0.0026 C.3     
  20 C20           -1.4718    -9.4102    -0.1334 C.3     
  21 O21            0.4005    -6.6816     2.1409 O.2     
  22 C22           -0.0532     4.2003     0.0146 C.ar    
  23 C23           -1.2455     3.4942     0.0537 C.ar    
  24 F24            2.3626     1.4932    -0.0889 F       
  25 F25           -2.4209     4.1585     0.1016 F       
  26 H26           -2.1144    -2.8334     0.0715 H       
  27 H27            2.1779    -2.7524    -0.1083 H       
  28 H28           -1.9921    -5.3102     0.0566 H       
  29 H29            2.0796     4.0857    -0.0691 H       
  30 H30           -2.1642     1.5643     0.0787 H       
  31 H31            1.5734    -9.0877     1.4354 H       
  32 H32           -0.0726    -9.1898     2.1009 H       
  33 H33            1.7865    -8.7805    -1.0686 H       
  34 H34            0.4852    -9.3745    -2.1328 H       
  35 H35           -0.9017    -7.4568    -1.6377 H       
  36 H36            0.7099    -6.8446    -2.0655 H       
  37 H37            0.0021   -11.4890     0.8585 H       
  38 H38            0.1157   -11.4828    -0.9179 H       
  39 H39            1.5417   -11.0757     0.0666 H       
  40 H40           -1.7567    -8.3583    -0.1572 H       
  41 H41           -1.8075    -9.8983    -1.0483 H       
  42 H42           -1.9354    -9.8927     0.7270 H       
  43 H43           -0.0680     5.2802     0.0188 H       
@<TRIPOS>BOND
   1    1    2 1
   2    1   10 ar
   3    1   12 ar
   4    2    3 3
   5    3    4 1
   6    4    5 ar
   7    4    8 ar
   8    5    9 ar
   9    5   26 1
  10    6    7 ar
  11    6   13 1
  12    6    9 ar
  13    7    8 ar
  14    8   27 1
  15    9   28 1
  16   10   11 ar
  17   10   24 1
  18   11   22 ar
  19   11   29 1
  20   12   23 ar
  21   12   30 1
  22   13   14 am
  23   13   18 1
  24   14   15 1
  25   14   21 2
  26   15   16 1
  27   15   31 1
  28   15   32 1
  29   16   17 1
  30   16   19 1
  31   16   20 1
  32   17   18 1
  33   17   33 1
  34   17   34 1
  35   18   35 1
  36   18   36 1
  37   19   37 1
  38   19   38 1
  39   19   39 1
  40   20   40 1
  41   20   41 1
  42   20   42 1
  43   22   23 ar
  44   22   43 1
  45   23   25 1

#	End of record

