#	Name: ASD01028004
#	Creating user name:	WinNT
#	Creation time:	15. 06. 2019 18:56

#	Modifying user name:	WinNT
#	Modification time:	15. 06. 2019 18:56

#	Program:	/corina/corina34_cracker 3.40 0067  02.08.2006

@<TRIPOS>MOLECULE
ASD01028004
  38   40    0    0    0
SMALL
NO_CHARGES


@<TRIPOS>ATOM
   1 C1             1.0293     1.1744    -1.7086 C.ar    
   2 C2             0.8561    -0.1781    -1.4118 C.ar    
   3 C3             0.1456    -0.9896    -2.2836 C.ar    
   4 C4            -0.3887    -0.4578    -3.4428 C.ar    
   5 C5            -0.2170     0.8820    -3.7367 C.ar    
   6 C6             0.4856     1.6999    -2.8705 C.ar    
   7 N7             1.7448     1.9992    -0.8330 N.pl3   
   8 S8             1.5386    -0.8530     0.0659 S.3     
   9 C9             0.9144    -2.5007     0.0743 C.ar    
  10 C10            1.7913    -3.5701    -0.0866 C.ar    
  11 N11           -0.3824    -2.7087     0.2390 N.ar    
  12 C12           -0.8924    -3.9348     0.2518 C.ar    
  13 C13           -0.0698    -5.0468     0.0914 C.ar    
  14 C14            1.2936    -4.8617    -0.0784 C.ar    
  15 C15           -2.3505    -4.1214     0.4391 C.ar    
  16 C16           -3.0195    -3.4488     1.4696 C.ar    
  17 N17           -2.3169    -2.6005     2.3233 N.pl3   
  18 C18           -3.0638    -4.9622    -0.4123 C.ar    
  19 C19           -4.4216    -5.1327    -0.2337 C.ar    
  20 C20           -5.0797    -4.4716     0.7887 C.ar    
  21 C21           -4.3852    -3.6306     1.6364 C.ar    
  22 N22            3.2409    -3.3283    -0.2650 N.pl3   
  23 O23            4.0024    -4.2685    -0.4052 O.2     
  24 O24            3.6720    -2.1892    -0.2716 O.2     
  25 H25            0.0099    -2.0369    -2.0573 H       
  26 H26           -0.9414    -1.0912    -4.1208 H       
  27 H27           -0.6361     1.2922    -4.6437 H       
  28 H28            0.6177     2.7462    -3.1033 H       
  29 H29            2.1212     1.6308    -0.0184 H       
  30 H30            1.8642     2.9391    -1.0408 H       
  31 H31           -0.4886    -6.0422     0.1032 H       
  32 H32            1.9531    -5.7075    -0.2052 H       
  33 H33           -1.3772    -2.4211     2.1633 H       
  34 H34           -2.7676    -2.1896     3.0775 H       
  35 H35           -2.5546    -5.4799    -1.2118 H       
  36 H36           -4.9731    -5.7846    -0.8949 H       
  37 H37           -6.1425    -4.6101     0.9215 H       
  38 H38           -4.9046    -3.1175     2.4323 H       
@<TRIPOS>BOND
   1    1    2 ar
   2    1    7 1
   3    1    6 ar
   4    2    3 ar
   5    2    8 1
   6    3    4 ar
   7    3   25 1
   8    4    5 ar
   9    4   26 1
  10    5    6 ar
  11    5   27 1
  12    6   28 1
  13    7   29 1
  14    7   30 1
  15    8    9 1
  16    9   10 ar
  17    9   11 ar
  18   10   22 1
  19   10   14 ar
  20   11   12 ar
  21   12   13 ar
  22   12   15 1
  23   13   14 ar
  24   13   31 1
  25   14   32 1
  26   15   16 ar
  27   15   18 ar
  28   16   17 1
  29   16   21 ar
  30   17   33 1
  31   17   34 1
  32   18   19 ar
  33   18   35 1
  34   19   20 ar
  35   19   36 1
  36   20   21 ar
  37   20   37 1
  38   21   38 1
  39   22   23 2
  40   22   24 2

#	End of record

