#	Name: ASD04882024
#	Creating user name:	WinNT
#	Creation time:	15. 06. 2019 20:53

#	Modifying user name:	WinNT
#	Modification time:	15. 06. 2019 20:53

#	Program:	/corina/corina34_cracker 3.40 0067  02.08.2006

@<TRIPOS>MOLECULE
ASD04882024
  77   81    0    0    0
SMALL
NO_CHARGES


@<TRIPOS>ATOM
   1 C1            -0.7128     2.6720     2.0378 C.ar    
   2 C2            -0.7474     1.2960     1.9067 C.ar    
   3 C3             0.4299     0.5790     1.7940 C.ar    
   4 C4             1.6444     1.2358     1.8120 C.ar    
   5 C5             1.6829     2.6183     1.9435 C.ar    
   6 C6             0.4987     3.3352     2.0565 C.ar    
   7 N7             2.9097     3.2858     1.9625 N.3     
   8 C8             3.0728     4.1222     0.7653 C.3     
   9 C9             4.3899     4.8957     0.8622 C.3     
  10 N10            5.5039     3.9464     0.9936 N.3     
  11 C11            5.3409     3.1099     2.1908 C.3     
  12 C12            4.0237     2.3364     2.0939 C.3     
  13 C13            6.7269     4.6118     1.0126 C.ar    
  14 C14            7.5020     4.6065     2.1662 C.ar    
  15 C15            8.7126     5.2635     2.1893 C.ar    
  16 C16            9.1647     5.9379     1.0521 C.ar    
  17 C17            8.3870     5.9448    -0.1096 C.ar    
  18 C18            7.1762     5.2794    -0.1307 C.ar    
  19 N19            6.3940     5.2835    -1.2930 N.am    
  20 C20            6.5007     6.2983    -2.1735 C.2     
  21 C21            5.6092     6.3520    -3.3503 C.ar    
  22 O22            7.3307     7.1695    -1.9993 O.2     
  23 C23            4.6550     5.3535    -3.5535 C.ar    
  24 C24           10.4608     6.6423     1.0775 C.2     
  25 N25           11.2096     6.6354     2.1981 N.am    
  26 O26           10.8534     7.2289     0.0875 O.2     
  27 C27           12.4966     7.3349     2.2233 C.3     
  28 C28           13.1384     7.1723     3.6027 C.3     
  29 C29            5.7131     7.4058    -4.2623 C.ar    
  30 C30            4.8757     7.4493    -5.3597 C.ar    
  31 C31            3.9366     6.4531    -5.5564 C.ar    
  32 C32            3.8254     5.4099    -4.6541 C.ar    
  33 Cl33           6.8910     8.6570    -4.0160 Cl      
  34 C34            0.5355     4.8350     2.1993 C.3     
  35 C35           14.4826     7.9028     3.6290 C.3     
  36 N36           15.0971     7.7471     4.9497 N.am    
  37 C37           15.9244     6.7431     5.2878 C.2     
  38 C38           14.8936     8.6709     6.0719 C.3     
  39 C39           15.3524     7.8995     7.3292 C.3     
  40 C40           16.3610     6.8913     6.7286 C.3     
  41 O41           16.2701     5.8481     4.5458 O.2     
  42 H42           -1.6341     3.2292     2.1211 H       
  43 H43           -1.6960     0.7798     1.8927 H       
  44 H44            0.3993    -0.4957     1.6922 H       
  45 H45            2.5634     0.6753     1.7243 H       
  46 H46            3.0874     3.4888    -0.1216 H       
  47 H47            2.2425     4.8251     0.6969 H       
  48 H48            4.5269     5.4948    -0.0380 H       
  49 H49            4.3644     5.5494     1.7341 H       
  50 H50            6.1712     2.4070     2.2592 H       
  51 H51            5.3262     3.7433     3.0777 H       
  52 H52            3.8868     1.7373     2.9941 H       
  53 H53            4.0492     1.6827     1.2221 H       
  54 H54            7.1543     4.0865     3.0465 H       
  55 H55            9.3126     5.2576     3.0873 H       
  56 H56            8.7339     6.4652    -0.9901 H       
  57 H57            5.7757     4.5559    -1.4641 H       
  58 H58            4.5669     4.5383    -2.8506 H       
  59 H59           10.8964     6.1675     2.9879 H       
  60 H60           13.1548     6.9121     1.4642 H       
  61 H61           12.3388     8.3937     2.0185 H       
  62 H62           12.4803     7.5950     4.3618 H       
  63 H63           13.2963     6.1134     3.8075 H       
  64 H64            4.9541     8.2631    -6.0655 H       
  65 H65            3.2839     6.4920    -6.4160 H       
  66 H66            3.0900     4.6354    -4.8143 H       
  67 H67            0.5843     5.2930     1.2114 H       
  68 H68           -0.3647     5.1733     2.7125 H       
  69 H69            1.4134     5.1235     2.7773 H       
  70 H70           15.1407     7.4800     2.8699 H       
  71 H71           14.3247     8.9616     3.4242 H       
  72 H72           15.4992     9.5671     5.9373 H       
  73 H73           13.8396     8.9361     6.1557 H       
  74 H74           15.8443     8.5658     8.0378 H       
  75 H75           14.5142     7.3840     7.7981 H       
  76 H76           16.2982     5.9344     7.2467 H       
  77 H77           17.3746     7.2887     6.7809 H       
@<TRIPOS>BOND
   1    1    2 ar
   2    1    6 ar
   3    1   42 1
   4    2    3 ar
   5    2   43 1
   6    3    4 ar
   7    3   44 1
   8    4    5 ar
   9    4   45 1
  10    5    6 ar
  11    5    7 1
  12    6   34 1
  13    7    8 1
  14    7   12 1
  15    8    9 1
  16    8   46 1
  17    8   47 1
  18    9   10 1
  19    9   48 1
  20    9   49 1
  21   10   11 1
  22   10   13 1
  23   11   12 1
  24   11   50 1
  25   11   51 1
  26   12   52 1
  27   12   53 1
  28   13   14 ar
  29   13   18 ar
  30   14   15 ar
  31   14   54 1
  32   15   16 ar
  33   15   55 1
  34   16   17 ar
  35   16   24 1
  36   17   18 ar
  37   17   56 1
  38   18   19 1
  39   19   20 am
  40   19   57 1
  41   20   21 1
  42   20   22 2
  43   21   23 ar
  44   21   29 ar
  45   23   32 ar
  46   23   58 1
  47   24   25 am
  48   24   26 2
  49   25   27 1
  50   25   59 1
  51   27   28 1
  52   27   60 1
  53   27   61 1
  54   28   35 1
  55   28   62 1
  56   28   63 1
  57   29   30 ar
  58   29   33 1
  59   30   31 ar
  60   30   64 1
  61   31   32 ar
  62   31   65 1
  63   32   66 1
  64   34   67 1
  65   34   68 1
  66   34   69 1
  67   35   36 1
  68   35   70 1
  69   35   71 1
  70   36   37 am
  71   36   38 1
  72   37   41 2
  73   37   40 1
  74   38   39 1
  75   38   72 1
  76   38   73 1
  77   39   40 1
  78   39   74 1
  79   39   75 1
  80   40   76 1
  81   40   77 1

#	End of record

