#	Name: ASD03080204
#	Creating user name:	WinNT
#	Creation time:	15. 06. 2019 20:26

#	Modifying user name:	WinNT
#	Modification time:	15. 06. 2019 20:26

#	Program:	/corina/corina34_cracker 3.40 0067  02.08.2006

@<TRIPOS>MOLECULE
ASD03080204
  42   42    0    0    0
SMALL
NO_CHARGES


@<TRIPOS>ATOM
   1 Cl1            0.0000     0.0000     0.0000 Cl      
   2 H2             0.0000     1.3700     0.0000 H       
   3 C3             9.6052    12.7421    11.3331 C.3     
   4 N4             9.3300    11.2997    11.3740 N.3     
   5 C5             9.5549    10.6833    10.0597 C.3     
   6 C6             9.2588     9.1845    10.1419 C.3     
   7 C7             9.3506     8.5780     8.7654 C.2     
   8 C8             8.3325     8.3666     7.9166 C.2     
   9 N9             8.7982     7.7997     6.7612 N.pl3   
  10 H10            8.2493     7.5551     5.9998 H       
  11 C11           10.1622     7.6284     6.8407 C.ar    
  12 C12           11.1144     7.1107     5.9692 C.ar    
  13 C13           12.4399     7.0738     6.3469 C.ar    
  14 Br14          13.7325     6.3700     5.1596 Br      
  15 C15           12.8350     7.5489     7.5905 C.ar    
  16 C16           11.9154     8.0615     8.4617 C.ar    
  17 C17           10.5688     8.1134     8.0973 C.ar    
  18 C18            6.8901     8.7027     8.1949 C.3     
  19 C19            6.7557    10.2063     8.4440 C.3     
  20 C20            6.0326     8.3065     6.9913 C.3     
  21 C21            6.4246     7.9481     9.4135 C.2     
  22 C22            5.8789     8.5933    10.4146 C.2     
  23 H23           10.6431    12.9059    11.0432 H       
  24 H24            8.9458    13.2173    10.6067 H       
  25 H25            9.4308    13.1734    12.3188 H       
  26 H26            9.8832    10.8461    12.0856 H       
  27 H27            8.8952    11.1442     9.3246 H       
  28 H28           10.5925    10.8328     9.7610 H       
  29 H29            9.9852     8.7061    10.7989 H       
  30 H30            8.2550     9.0337    10.5392 H       
  31 H31           10.8166     6.7387     5.0000 H       
  32 H32           13.8771     7.5126     7.8716 H       
  33 H33           12.2299     8.4291     9.4273 H       
  34 H34            7.2253    10.7534     7.6265 H       
  35 H35            5.7002    10.4724     8.5002 H       
  36 H36            7.2460    10.4644     9.3827 H       
  37 H37            6.0767     7.2261     6.8537 H       
  38 H38            5.0000     8.6088     7.1656 H       
  39 H39            6.4104     8.8023     6.0971 H       
  40 H40            6.5409     6.8755     9.4615 H       
  41 H41            5.5453     8.0525    11.2879 H       
  42 H42            5.7626     9.6659    10.3666 H       
@<TRIPOS>BOND
   1    1    2 1
   2    3    4 1
   3    3   23 1
   4    3   24 1
   5    3   25 1
   6    4    5 1
   7    4   26 1
   8    5    6 1
   9    5   27 1
  10    5   28 1
  11    6    7 1
  12    6   29 1
  13    6   30 1
  14    7   17 1
  15    7    8 2
  16    8    9 1
  17    8   18 1
  18    9   10 1
  19    9   11 1
  20   11   17 ar
  21   11   12 ar
  22   12   13 ar
  23   12   31 1
  24   13   14 1
  25   13   15 ar
  26   15   16 ar
  27   15   32 1
  28   16   17 ar
  29   16   33 1
  30   18   19 1
  31   18   20 1
  32   18   21 1
  33   19   34 1
  34   19   35 1
  35   19   36 1
  36   20   37 1
  37   20   38 1
  38   20   39 1
  39   21   22 2
  40   21   40 1
  41   22   41 1
  42   22   42 1

#	End of record

