#	Name: ASD03080046
#	Creating user name:	WinNT
#	Creation time:	15. 06. 2019 20:26

#	Modifying user name:	WinNT
#	Modification time:	15. 06. 2019 20:26

#	Program:	/corina/corina34_cracker 3.40 0067  02.08.2006

@<TRIPOS>MOLECULE
ASD03080046
  41   43    0    0    0
SMALL
NO_CHARGES


@<TRIPOS>ATOM
   1 C1            -0.0180     1.4732     0.0101 C.2     
   2 C2             0.0021    -0.0041     0.0020 C.ar    
   3 C3             1.2176    -0.6862    -0.0133 C.ar    
   4 C4             1.2273    -2.0790    -0.0209 C.ar    
   5 C5             0.0207    -2.7829    -0.0132 C.ar    
   6 C6            -1.1799    -2.1013     0.0019 C.ar    
   7 C7            -1.1971    -0.7207     0.0154 C.ar    
   8 O8             1.0256     2.0948     0.0035 O.2     
   9 O9            -1.1936     2.1308     0.0193 O.3     
  10 O10            3.7401    -2.2700    -0.0463 O.3     
  11 N11            4.5776    -3.1469    -0.0595 N.2     
  12 C12            4.0044    -4.3231    -0.0608 C.2     
  13 N13            2.6703    -4.1209    -0.0467 N.2     
  14 C14            2.5119    -2.8108    -0.0376 C.2     
  15 C15            3.9609    -6.8218    -0.0753 C.ar    
  16 C16            4.6943    -5.6373    -0.0750 C.ar    
  17 C17            6.0897    -5.7064    -0.0889 C.ar    
  18 C18            6.6852    -6.9563    -0.1024 C.ar    
  19 C19            5.8874    -8.0856    -0.1017 C.ar    
  20 N20            4.5718    -7.9887    -0.0884 N.ar    
  21 C21           -1.1373     3.5817     0.0269 C.3     
  22 C22           -0.4027     4.0702    -1.2232 C.3     
  23 C23           -2.5589     4.1472     0.0367 C.3     
  24 C24           -0.3909     4.0566     1.2752 C.3     
  25 H25            2.1477    -0.1373    -0.0195 H       
  26 H26            0.0270    -3.8629    -0.0194 H       
  27 H27           -2.1098    -2.6506     0.0075 H       
  28 H28           -2.1396    -0.1937     0.0321 H       
  29 H29            2.8817    -6.7829    -0.0601 H       
  30 H30            6.6885    -4.8077    -0.0895 H       
  31 H31            7.7612    -7.0482    -0.1137 H       
  32 H32            6.3484    -9.0622    -0.1121 H       
  33 H33           -0.9345     3.7319    -2.1125 H       
  34 H34           -0.3604     5.1593    -1.2175 H       
  35 H35            0.6101     3.6673    -1.2302 H       
  36 H36           -3.0822     3.7993     0.9273 H       
  37 H37           -2.5166     5.2364     0.0424 H       
  38 H38           -3.0906     3.8089    -0.8526 H       
  39 H39            0.6219     3.6537     1.2682 H       
  40 H40           -0.3486     5.1457     1.2809 H       
  41 H41           -0.9142     3.7086     2.1658 H       
@<TRIPOS>BOND
   1    1    2 1
   2    1    8 2
   3    1    9 1
   4    2    3 ar
   5    2    7 ar
   6    3    4 ar
   7    3   25 1
   8    4    5 ar
   9    4   14 1
  10    5    6 ar
  11    5   26 1
  12    6    7 ar
  13    6   27 1
  14    7   28 1
  15    9   21 1
  16   10   11 1
  17   10   14 1
  18   11   12 2
  19   12   13 1
  20   12   16 1
  21   13   14 2
  22   15   16 ar
  23   15   20 ar
  24   15   29 1
  25   16   17 ar
  26   17   18 ar
  27   17   30 1
  28   18   19 ar
  29   18   31 1
  30   19   20 ar
  31   19   32 1
  32   21   22 1
  33   21   24 1
  34   21   23 1
  35   22   33 1
  36   22   34 1
  37   22   35 1
  38   23   36 1
  39   23   37 1
  40   23   38 1
  41   24   39 1
  42   24   40 1
  43   24   41 1

#	End of record

