#	Name: ASD07301353
#	Creating user name:	WinNT
#	Creation time:	15. 06. 2019 21:11

#	Modifying user name:	WinNT
#	Modification time:	15. 06. 2019 21:11

#	Program:	/corina/corina34_cracker 3.40 0067  02.08.2006

@<TRIPOS>MOLECULE
ASD07301353
  28   29    0    0    0
SMALL
NO_CHARGES


@<TRIPOS>ATOM
   1 C1            -0.0169     1.4660     0.0591 C.2     
   2 C2             0.0021    -0.0041     0.0009 C.2     
   3 C3             1.2720    -0.6341    -0.0641 C.2     
   4 C4             2.3708     0.1573    -0.0679 C.2     
   5 N5             2.2553     1.5070    -0.0109 N.pl3   
   6 N6             1.1284     2.1150     0.0482 N.2     
   7 C7            -1.2967     2.1999     0.1224 C.2     
   8 O8            -2.3480     1.5892     0.1268 O.2     
   9 N9            -1.2994     3.5466     0.1753 N.am    
  10 C10            3.4247     2.2747    -0.0175 C.ar    
  11 C11            3.3486     3.6586    -0.1137 C.ar    
  12 C12            4.5048     4.4133    -0.1200 C.ar    
  13 C13            5.7379     3.7931    -0.0307 C.ar    
  14 C14            5.8173     2.4160     0.0652 C.ar    
  15 C15            4.6644     1.6554     0.0778 C.ar    
  16 C16            4.4232     5.9145    -0.2248 C.3     
  17 F17            4.3470     6.4680     1.0578 F       
  18 F18            5.5632     6.3992    -0.8749 F       
  19 F19            3.2837     6.2697    -0.9545 F       
  20 O20           -1.0313    -0.6545     0.0086 O.2     
  21 H21            1.3592    -1.7096    -0.1086 H       
  22 H22            3.3516    -0.2923    -0.1167 H       
  23 H23           -0.4606     4.0338     0.1719 H       
  24 H24           -2.1401     4.0286     0.2169 H       
  25 H25            2.3861     4.1435    -0.1838 H       
  26 H26            6.6408     4.3857    -0.0361 H       
  27 H27            6.7817     1.9348     0.1344 H       
  28 H28            4.7269     0.5802     0.1575 H       
@<TRIPOS>BOND
   1    1    2 1
   2    1    6 2
   3    1    7 1
   4    2    3 1
   5    2   20 2
   6    3    4 2
   7    3   21 1
   8    4    5 1
   9    4   22 1
  10    5    6 1
  11    5   10 1
  12    7    8 2
  13    7    9 am
  14    9   23 1
  15    9   24 1
  16   10   11 ar
  17   10   15 ar
  18   11   12 ar
  19   11   25 1
  20   12   13 ar
  21   12   16 1
  22   13   14 ar
  23   13   26 1
  24   14   15 ar
  25   14   27 1
  26   15   28 1
  27   16   17 1
  28   16   18 1
  29   16   19 1

#	End of record

