#	Name: ASD01150466
#	Creating user name:	WinNT
#	Creation time:	15. 06. 2019 19:04

#	Modifying user name:	WinNT
#	Modification time:	15. 06. 2019 19:04

#	Program:	/corina/corina34_cracker 3.40 0067  02.08.2006

@<TRIPOS>MOLECULE
ASD01150466
  38   40    0    0    0
SMALL
NO_CHARGES


@<TRIPOS>ATOM
   1 C1             2.0455     1.4038    -0.8411 C.ar    
   2 C2             2.0585     0.0229    -0.8454 C.ar    
   3 C3             0.3431    -0.0046     0.8288 C.ar    
   4 C4             0.3254     1.3763     0.8383 C.ar    
   5 C5             1.1777     2.0861     0.0020 C.ar    
   6 N6             1.1623     3.4852     0.0092 N.am    
   7 C7            -0.0113     4.1355    -0.0781 C.2     
   8 N8            -0.0630     5.4805    -0.0744 N.am    
   9 C9             1.0745     6.2002     0.0182 C.2     
  10 C10            2.3615     5.4949     0.1145 C.2     
  11 N11            2.3686     4.1879     0.1129 N.2     
  12 O12            1.0361     7.4166     0.0217 O.2     
  13 C13           -1.3553     6.1636    -0.1717 C.3     
  14 O14           -1.0435     3.4978    -0.1621 O.2     
  15 C15           -1.9093     6.3898     1.2114 C.ar    
  16 C16           -1.6072     7.5527     1.8951 C.ar    
  17 C17           -2.1150     7.7607     3.1636 C.ar    
  18 C18           -2.9258     6.8048     3.7492 C.ar    
  19 C19           -3.2278     5.6411     3.0645 C.ar    
  20 C20           -2.7240     5.4368     1.7937 C.ar    
  21 O21            3.5243     6.1909     0.2090 O.3     
  22 C22            4.7305     5.4299     0.2986 C.3     
  23 C23            1.2084    -0.6807    -0.0119 C.ar    
  24 Cl24          -3.5635     7.0650     5.3427 Cl      
  25 H25            2.7125     1.9527    -1.4894 H       
  26 H26            2.7330    -0.5082    -1.5007 H       
  27 H27           -0.3192    -0.5570     1.4787 H       
  28 H28           -0.3505     1.9037     1.4951 H       
  29 H29           -1.2224     7.1233    -0.6713 H       
  30 H30           -2.0491     5.5487    -0.7449 H       
  31 H31           -0.9739     8.2987     1.4380 H       
  32 H32           -1.8786     8.6691     3.6978 H       
  33 H33           -3.8607     4.8946     3.5210 H       
  34 H34           -2.9597     4.5285     1.2591 H       
  35 H35            5.5824     6.1063     0.3688 H       
  36 H36            4.6955     4.7965     1.1850 H       
  37 H37            4.8337     4.8066    -0.5896 H       
  38 H38            1.2200    -1.7606    -0.0177 H       
@<TRIPOS>BOND
   1    1    2 ar
   2    1    5 ar
   3    1   25 1
   4    2   23 ar
   5    2   26 1
   6    3    4 ar
   7    3   23 ar
   8    3   27 1
   9    4    5 ar
  10    4   28 1
  11    5    6 1
  12    6    7 am
  13    6   11 1
  14    7    8 am
  15    7   14 2
  16    8    9 am
  17    8   13 1
  18    9   10 1
  19    9   12 2
  20   10   11 2
  21   10   21 1
  22   13   15 1
  23   13   29 1
  24   13   30 1
  25   15   16 ar
  26   15   20 ar
  27   16   17 ar
  28   16   31 1
  29   17   18 ar
  30   17   32 1
  31   18   19 ar
  32   18   24 1
  33   19   20 ar
  34   19   33 1
  35   20   34 1
  36   21   22 1
  37   22   35 1
  38   22   36 1
  39   22   37 1
  40   23   38 1

#	End of record

