#	Name: ASD01000165
#	Creating user name:	WinNT
#	Creation time:	15. 06. 2019 18:54

#	Modifying user name:	WinNT
#	Modification time:	15. 06. 2019 18:54

#	Program:	/corina/corina34_cracker 3.40 0067  02.08.2006

@<TRIPOS>MOLECULE
ASD01000165
  52   55    0    0    0
SMALL
NO_CHARGES


@<TRIPOS>ATOM
   1 C1            -0.0562     1.3872    -0.5078 C.ar    
   2 C2            -2.3430    -0.9388    -0.4792 C.ar    
   3 C3            -0.0390    -0.0067    -0.0442 C.3     
   4 C4             0.3623     3.9532    -1.4450 C.ar    
   5 C5            -0.8817     3.3881    -1.3944 C.ar    
   6 C6            -1.1064     2.0799    -0.8794 C.ar    
   7 C7             1.2368     1.9569    -0.5288 C.ar    
   8 C8             1.4508     3.2326    -0.9876 C.ar    
   9 C9            -3.2362    -2.0155    -0.2104 C.ar    
  10 C10           -2.8539    -3.1256     0.4896 C.ar    
  11 C11           -1.5526    -3.2083     0.9546 C.ar    
  12 C12           -0.6994    -2.1636     0.7114 C.ar    
  13 C13           -1.1077    -1.0088     0.0030 C.ar    
  14 C14            1.0784    -0.6617    -0.8145 C.ar    
  15 C15            2.0746    -1.3441    -0.1415 C.ar    
  16 C16            3.0995    -1.9449    -0.8481 C.ar    
  17 C17            3.1281    -1.8638    -2.2278 C.ar    
  18 C18            2.1314    -1.1822    -2.9009 C.ar    
  19 C19            1.1041    -0.5850    -2.1945 C.ar    
  20 S20            0.6112     0.0674     1.6477 S.3     
  21 C21           -0.6736     0.9871     2.5387 C.3     
  22 C22           -0.3387     1.0147     4.0314 C.3     
  23 C23           -1.4060     1.7788     4.7716 C.2     
  24 N24           -0.2757    -0.3603     4.5446 N.3     
  25 O25           -1.3890     3.1210     4.7772 O.3     
  26 O26           -2.2772     1.1833     5.3601 O.2     
  27 C27           -2.6093     1.8760    -0.8387 C.3     
  28 S28           -3.1353     0.2896    -1.4813 S.3     
  29 C29            4.2460    -2.5180    -2.9981 C.3     
  30 F30            3.8864    -3.8319    -3.3164 F       
  31 F31            4.4828    -1.8009    -4.1758 F       
  32 F32            5.4067    -2.5283    -2.2171 F       
  33 H33            0.4936     4.9506    -1.8380 H       
  34 H34           -1.7255     3.9554    -1.7583 H       
  35 H35            2.0755     1.3754    -0.1756 H       
  36 H36            2.4419     3.6618    -0.9917 H       
  37 H37           -4.2518    -1.9524    -0.5724 H       
  38 H38           -3.5556    -3.9249     0.6771 H       
  39 H39           -1.2164    -4.0788     1.4983 H       
  40 H40            0.3167    -2.2235     1.0723 H       
  41 H41            2.0522    -1.4075     0.9364 H       
  42 H42            3.8782    -2.4774    -0.3223 H       
  43 H43            2.1539    -1.1185    -3.9787 H       
  44 H44            0.3235    -0.0557    -2.7206 H       
  45 H45           -0.7203     2.0073     2.1579 H       
  46 H46           -1.6374     0.4998     2.3916 H       
  47 H47            0.6252     1.5020     4.1785 H       
  48 H48           -1.1580    -0.8336     4.4197 H       
  49 H49            0.4754    -0.8746     4.1094 H       
  50 H50           -2.0944     3.5670     5.2656 H       
  51 H51           -2.9450     1.9622     0.1947 H       
  52 H52           -3.0841     2.6639    -1.4235 H       
@<TRIPOS>BOND
   1    1    3 1
   2    1    7 ar
   3    1    6 ar
   4    2    9 ar
   5    2   13 ar
   6    2   28 1
   7    3   14 1
   8    3   20 1
   9    3   13 1
  10    4    5 ar
  11    4    8 ar
  12    4   33 1
  13    5    6 ar
  14    5   34 1
  15    6   27 1
  16    7    8 ar
  17    7   35 1
  18    8   36 1
  19    9   10 ar
  20    9   37 1
  21   10   11 ar
  22   10   38 1
  23   11   12 ar
  24   11   39 1
  25   12   13 ar
  26   12   40 1
  27   14   15 ar
  28   14   19 ar
  29   15   16 ar
  30   15   41 1
  31   16   17 ar
  32   16   42 1
  33   17   18 ar
  34   17   29 1
  35   18   19 ar
  36   18   43 1
  37   19   44 1
  38   20   21 1
  39   21   22 1
  40   21   45 1
  41   21   46 1
  42   22   23 1
  43   22   24 1
  44   22   47 1
  45   23   25 1
  46   23   26 2
  47   24   48 1
  48   24   49 1
  49   25   50 1
  50   27   28 1
  51   27   51 1
  52   27   52 1
  53   29   30 1
  54   29   31 1
  55   29   32 1

#	End of record

