#	Name: ASD01900355
#	Creating user name:	WinNT
#	Creation time:	15. 06. 2019 19:51

#	Modifying user name:	WinNT
#	Modification time:	15. 06. 2019 19:51

#	Program:	/corina/corina34_cracker 3.40 0067  02.08.2006

@<TRIPOS>MOLECULE
ASD01900355
  42   44    0    0    0
SMALL
NO_CHARGES


@<TRIPOS>ATOM
   1 C1            -0.0168     1.3891     0.0097 C.ar    
   2 C2             0.0021    -0.0041     0.0020 C.ar    
   3 C3             1.2224    -0.6606    -0.0132 C.ar    
   4 C4             2.3820     0.0992    -0.0202 C.ar    
   5 C5             2.2884     1.4815    -0.0119 C.ar    
   6 N6             1.1169     2.0792     0.0026 N.ar    
   7 C7            -1.3131     2.1060     0.0197 C.2     
   8 O8            -2.3544     1.4790     0.0212 O.2     
   9 N9            -1.3378     3.4535     0.0271 N.am    
  10 N10           -4.7270     4.5720     0.0495 N.pl3   
  11 C11           -3.7979     3.5684     0.0399 C.2     
  12 C12           -2.5683     4.1341     0.0367 C.2     
  13 C13           -2.7503     5.5349     0.0447 C.2     
  14 C14           -4.0778     5.7706     0.0524 C.2     
  15 S15           -4.8431     7.3577     0.0642 S.o2    
  16 O16           -3.8944     8.2647    -0.4803 O.2     
  17 O17           -6.1457     7.1790    -0.4747 O.2     
  18 C18           -5.0613     7.8190     1.7507 C.ar    
  19 C19           -4.0686     8.5199     2.4096 C.ar    
  20 C20           -4.2398     8.8818     3.7327 C.ar    
  21 C21           -5.4039     8.5430     4.3968 C.ar    
  22 C22           -5.5903     8.9371     5.8394 C.3     
  23 C23           -6.3972     7.8433     3.7375 C.ar    
  24 C24           -6.2276     7.4848     2.4133 C.ar    
  25 C25           -6.1805     4.3890     0.0503 C.3     
  26 H26           -0.9212    -0.5644     0.0082 H       
  27 H27            1.2690    -1.7395    -0.0191 H       
  28 H28            3.3489    -0.3818    -0.0317 H       
  29 H29            3.1898     2.0763    -0.0170 H       
  30 H30           -0.5068     3.9539     0.0259 H       
  31 H31           -4.0086     2.5092     0.0359 H       
  32 H32           -1.9690     6.2806     0.0443 H       
  33 H33           -3.1592     8.7846     1.8907 H       
  34 H34           -3.4640     9.4288     4.2476 H       
  35 H35           -6.0627     9.9181     5.8899 H       
  36 H36           -6.2234     8.2029     6.3377 H       
  37 H37           -4.6197     8.9752     6.3339 H       
  38 H38           -7.3068     7.5790     4.2563 H       
  39 H39           -7.0050     6.9410     1.8972 H       
  40 H40           -6.5394     4.3356     1.0781 H       
  41 H41           -6.6529     5.2306    -0.4563 H       
  42 H42           -6.4306     3.4646    -0.4704 H       
@<TRIPOS>BOND
   1    1    2 ar
   2    1    6 ar
   3    1    7 1
   4    2    3 ar
   5    2   26 1
   6    3    4 ar
   7    3   27 1
   8    4    5 ar
   9    4   28 1
  10    5    6 ar
  11    5   29 1
  12    7    8 2
  13    7    9 am
  14    9   12 1
  15    9   30 1
  16   10   11 1
  17   10   14 1
  18   10   25 1
  19   11   12 2
  20   11   31 1
  21   12   13 1
  22   13   14 2
  23   13   32 1
  24   14   15 1
  25   15   16 2
  26   15   17 2
  27   15   18 1
  28   18   19 ar
  29   18   24 ar
  30   19   20 ar
  31   19   33 1
  32   20   21 ar
  33   20   34 1
  34   21   22 1
  35   21   23 ar
  36   22   35 1
  37   22   36 1
  38   22   37 1
  39   23   24 ar
  40   23   38 1
  41   24   39 1
  42   25   40 1
  43   25   41 1
  44   25   42 1

#	End of record

