#	Name: ASD01915851
#	Creating user name:	WinNT
#	Creation time:	15. 06. 2019 20:06

#	Modifying user name:	WinNT
#	Modification time:	15. 06. 2019 20:06

#	Program:	/corina/corina34_cracker 3.40 0067  02.08.2006

@<TRIPOS>MOLECULE
ASD01915851
  41   44    0    0    0
SMALL
NO_CHARGES


@<TRIPOS>ATOM
   1 C1            -0.0049     1.4254     0.0410 C.2     
   2 N2             0.0307     0.0499    -0.0127 N.pl3   
   3 C3            -1.2047    -0.7402    -0.0773 C.3     
   4 C4            -2.3222     0.0096     0.6458 C.3     
   5 N5            -2.3963     1.4147     0.2603 N.am    
   6 C6            -1.2790     2.1591     0.0772 C.2     
   7 C7             1.2910     1.8584     0.0643 C.2     
   8 C8             2.0645     0.6902     0.0341 C.2     
   9 N9             1.2466    -0.3358    -0.0057 N.2     
  10 C10            3.5699     0.6235     0.0449 C.3     
  11 O11            4.1050     1.9478     0.0912 O.3     
  12 C12            5.4588     2.0660     0.1065 C.ar    
  13 O13           -1.3272     3.3679    -0.0508 O.2     
  14 C14            6.0461     3.3221     0.1511 C.ar    
  15 C15            6.2557     0.9306     0.0833 C.ar    
  16 C16            7.6316     1.0535     0.0988 C.ar    
  17 C17            8.2146     2.3067     0.1376 C.ar    
  18 C18            7.4224     3.4396     0.1666 C.ar    
  19 C19           -3.6475     2.0060     0.0755 C.2     
  20 N20           -4.4226     2.5984     1.0383 N.pl3   
  21 C21           -5.5535     3.0401     0.4247 C.2     
  22 N22           -5.4858     2.7405    -0.8430 N.2     
  23 C23           -4.3276     2.1105    -1.0911 C.2     
  24 C24           -4.0953     2.7303     2.4602 C.3     
  25 H25           -1.4845    -0.8934    -1.1196 H       
  26 H26           -1.0446    -1.7057     0.4026 H       
  27 H27           -3.2739    -0.4693     0.4157 H       
  28 H28           -2.1499    -0.0522     1.7203 H       
  29 H29            1.6426     2.8790     0.0982 H       
  30 H30            3.9027     0.0663     0.9206 H       
  31 H31            3.9179     0.1224    -0.8584 H       
  32 H32            5.4278     4.2073     0.1734 H       
  33 H33            5.8008    -0.0484     0.0534 H       
  34 H34            8.2524     0.1699     0.0811 H       
  35 H35            9.2904     2.4006     0.1497 H       
  36 H36            7.8802     4.4173     0.1964 H       
  37 H37           -6.3721     3.5532     0.9073 H       
  38 H38           -3.9979     1.7447    -2.0523 H       
  39 H39           -3.4765     3.6150     2.6101 H       
  40 H40           -5.0149     2.8280     3.0372 H       
  41 H41           -3.5509     1.8459     2.7913 H       
@<TRIPOS>BOND
   1    1    2 1
   2    1    7 2
   3    1    6 1
   4    2    3 1
   5    2    9 1
   6    3    4 1
   7    3   25 1
   8    3   26 1
   9    4    5 1
  10    4   27 1
  11    4   28 1
  12    5    6 am
  13    5   19 1
  14    6   13 2
  15    7    8 1
  16    7   29 1
  17    8    9 2
  18    8   10 1
  19   10   11 1
  20   10   30 1
  21   10   31 1
  22   11   12 1
  23   12   14 ar
  24   12   15 ar
  25   14   18 ar
  26   14   32 1
  27   15   16 ar
  28   15   33 1
  29   16   17 ar
  30   16   34 1
  31   17   18 ar
  32   17   35 1
  33   18   36 1
  34   19   20 1
  35   19   23 2
  36   20   21 1
  37   20   24 1
  38   21   22 2
  39   21   37 1
  40   22   23 1
  41   23   38 1
  42   24   39 1
  43   24   40 1
  44   24   41 1

#	End of record

