#	Name: ASD03091442
#	Creating user name:	WinNT
#	Creation time:	15. 06. 2019 20:30

#	Modifying user name:	WinNT
#	Modification time:	15. 06. 2019 20:30

#	Program:	/corina/corina34_cracker 3.40 0067  02.08.2006

@<TRIPOS>MOLECULE
ASD03091442
  31   33    0    0    0
SMALL
NO_CHARGES


@<TRIPOS>ATOM
   1 C1             0.0541     1.7492    -0.0619 C.3     
   2 C2            -0.0003     0.2224    -0.1458 C.3     
   3 N3             0.6396    -0.3576     1.0419 N.3     
   4 C4            -0.0664     0.0334     2.2687 C.3     
   5 C5            -0.0147     1.5544     2.4266 C.3     
   6 C6             1.4471     2.0051     2.5186 C.3     
   7 N7             2.1147     1.7048     1.2447 N.am    
   8 C8             1.5169     2.2019    -0.0020 C.3     
   9 C9            -0.6671     2.2130     1.2073 C.3     
  10 C10            3.2546     0.9861     1.2201 C.2     
  11 O11            3.8063     0.6851     2.2615 O.2     
  12 S12            5.3519    -0.3511    -1.8262 S.3     
  13 C13            3.8382     0.3014    -2.2728 C.2     
  14 N14            3.2030     0.7202    -1.2355 N.2     
  15 C15            3.8321     0.5652    -0.0676 C.2     
  16 C16            5.0485    -0.0147    -0.1779 C.2     
  17 H17           -0.4261     2.1806    -0.9402 H       
  18 H18           -1.0398    -0.1019    -0.1932 H       
  19 H19            0.5252    -0.1111    -1.0407 H       
  20 H20            0.7019    -1.3617     0.9650 H       
  21 H21           -1.1055    -0.2902     2.2085 H       
  22 H22            0.4110    -0.4373     3.1281 H       
  23 H23           -0.5445     1.8458     3.3335 H       
  24 H24            1.4877     3.0776     2.7086 H       
  25 H25            1.9446     1.4693     3.3271 H       
  26 H26            2.0603     1.7958    -0.8552 H       
  27 H27            1.5636     3.2907    -0.0210 H       
  28 H28           -0.5904     3.2968     1.2942 H       
  29 H29           -1.7169     1.9244     1.1557 H       
  30 H30            3.4663     0.3556    -3.2853 H       
  31 H31            5.7187    -0.2301     0.6412 H       
@<TRIPOS>BOND
   1    1    2 1
   2    1    8 1
   3    1    9 1
   4    1   17 1
   5    2    3 1
   6    2   18 1
   7    2   19 1
   8    3    4 1
   9    3   20 1
  10    4    5 1
  11    4   21 1
  12    4   22 1
  13    5    6 1
  14    5    9 1
  15    5   23 1
  16    6    7 1
  17    6   24 1
  18    6   25 1
  19    7    8 1
  20    7   10 am
  21    8   26 1
  22    8   27 1
  23    9   28 1
  24    9   29 1
  25   10   11 2
  26   10   15 1
  27   12   13 1
  28   12   16 1
  29   13   14 2
  30   13   30 1
  31   14   15 1
  32   15   16 2
  33   16   31 1

#	End of record

