#	Name: ASD02198583
#	Creating user name:	WinNT
#	Creation time:	15. 06. 2019 20:19

#	Modifying user name:	WinNT
#	Modification time:	15. 06. 2019 20:19

#	Program:	/corina/corina34_cracker 3.40 0067  02.08.2006

@<TRIPOS>MOLECULE
ASD02198583
  49   53    0    0    0
SMALL
NO_CHARGES


@<TRIPOS>ATOM
   1 C1             0.0072     1.5097     0.1333 C.2     
   2 C2             0.0745     0.1697    -0.0949 C.2     
   3 N3            -1.0521    -0.5605    -0.2642 N.pl3   
   4 N4            -2.2300    -0.0572    -0.2229 N.2     
   5 C5            -2.4376     1.2257    -0.0099 C.2     
   6 C6            -1.2791     2.1067     0.1922 C.2     
   7 C7            -0.9245    -1.9340    -0.4964 C.ar    
   8 C8            -1.3845    -3.8648    -1.8483 C.ar    
   9 C9            -0.6716    -4.6545    -0.9561 C.ar    
  10 C10           -0.0903    -4.0821     0.1684 C.ar    
  11 C11           -0.2165    -2.7274     0.3978 C.ar    
  12 C12           -3.8109     1.7685     0.0302 C.2     
  13 N13           -4.3727     2.4811     1.0520 N.pl3   
  14 N14           -5.6847     2.7992     0.6793 N.2     
  15 C15           -5.9154     2.3062    -0.5113 C.2     
  16 C16           -4.7643     1.6569    -0.9578 C.2     
  17 C17           -3.7486     2.8303     2.2563 C.ar    
  18 C18           -2.9547     1.9057     2.9222 C.ar    
  19 O19           -1.4171     3.3047     0.3935 O.2     
  20 C20           -3.9177     4.1036     2.7840 C.ar    
  21 C21           -3.3009     4.4448     3.9717 C.ar    
  22 C22           -2.5156     3.5201     4.6353 C.ar    
  23 C23           -2.3406     2.2531     4.1095 C.ar    
  24 C24           -1.5115    -2.5076    -1.6204 C.ar    
  25 F25           -2.2054    -1.7385    -2.4877 F       
  26 O26            1.1345     2.2509     0.3050 O.3     
  27 C27            2.3829     1.5590     0.2344 C.3     
  28 N28           -0.5431    -6.0310    -1.1870 N.pl3   
  29 C29            0.1200    -6.9110    -0.4033 C.2     
  30 N30           -1.0842    -6.7397    -2.2676 N.2     
  31 C31           -0.7518    -7.9990    -2.1385 C.2     
  32 C32            0.0078    -8.1342    -0.9713 C.2     
  33 H33            1.0378    -0.3162    -0.1419 H       
  34 H34           -1.8361    -4.3103    -2.7223 H       
  35 H35            0.4640    -4.6974     0.8617 H       
  36 H36            0.2355    -2.2836     1.2725 H       
  37 H37           -6.8423     2.3915    -1.0590 H       
  38 H38           -4.6444     1.1516    -1.9048 H       
  39 H39           -2.8179     0.9160     2.5122 H       
  40 H40           -4.5306     4.8264     2.2660 H       
  41 H41           -3.4317     5.4351     4.3824 H       
  42 H42           -2.0344     3.7893     5.5639 H       
  43 H43           -1.7270     1.5329     4.6303 H       
  44 H44            3.1989     2.2652     0.3879 H       
  45 H45            2.4168     0.7910     1.0072 H       
  46 H46            2.4851     1.0930    -0.7456 H       
  47 H47            0.6452    -6.6793     0.5116 H       
  48 H48           -1.0199    -8.7970    -2.8151 H       
  49 H49            0.4305    -9.0524    -0.5911 H       
@<TRIPOS>BOND
   1    1    2 2
   2    1   26 1
   3    1    6 1
   4    2    3 1
   5    2   33 1
   6    3    4 1
   7    3    7 1
   8    4    5 2
   9    5    6 1
  10    5   12 1
  11    6   19 2
  12    7   24 ar
  13    7   11 ar
  14    8    9 ar
  15    8   24 ar
  16    8   34 1
  17    9   10 ar
  18    9   28 1
  19   10   11 ar
  20   10   35 1
  21   11   36 1
  22   12   13 1
  23   12   16 2
  24   13   14 1
  25   13   17 1
  26   14   15 2
  27   15   16 1
  28   15   37 1
  29   16   38 1
  30   17   20 ar
  31   17   18 ar
  32   18   23 ar
  33   18   39 1
  34   20   21 ar
  35   20   40 1
  36   21   22 ar
  37   21   41 1
  38   22   23 ar
  39   22   42 1
  40   23   43 1
  41   24   25 1
  42   26   27 1
  43   27   44 1
  44   27   45 1
  45   27   46 1
  46   28   29 1
  47   28   30 1
  48   29   32 2
  49   29   47 1
  50   30   31 2
  51   31   32 1
  52   31   48 1
  53   32   49 1

#	End of record

