#	Name: ASD05380095
#	Creating user name:	WinNT
#	Creation time:	15. 06. 2019 20:59

#	Modifying user name:	WinNT
#	Modification time:	15. 06. 2019 20:59

#	Program:	/corina/corina34_cracker 3.40 0067  02.08.2006

@<TRIPOS>MOLECULE
ASD05380095
  46   50    0    0    0
SMALL
NO_CHARGES


@<TRIPOS>ATOM
   1 C1            -0.2265     1.5761    -0.3889 C.ar    
   2 C2            -0.0888     0.1887    -0.6182 C.ar    
   3 C3             0.7587     2.4574    -0.8291 C.ar    
   4 C4             1.8646     1.9654    -1.4878 C.ar    
   5 C5             2.0030     0.6027    -1.7148 C.ar    
   6 C6             1.0408    -0.2851    -1.2878 C.ar    
   7 N7            -1.0604    -0.6504    -0.1801 N.2     
   8 C8            -2.1106    -0.2095     0.4431 C.2     
   9 N9            -2.3255     1.1079     0.7067 N.am    
  10 C10           -1.4244     2.0426     0.3242 C.2     
  11 C11           -3.4868     1.4997     1.3845 C.ar    
  12 C12           -4.6416     1.7958     0.6725 C.ar    
  13 C13           -3.4874     1.5874     2.7704 C.ar    
  14 C14           -5.7813     2.2728     2.7236 C.ar    
  15 C15           -3.1445    -1.2076     0.8970 C.3     
  16 N16           -3.2460    -2.2876    -0.0876 N.pl3   
  17 C17           -4.4161    -3.0187    -0.1946 C.ar    
  18 N18           -5.4572    -2.7541     0.5880 N.ar    
  19 O19           -1.6034     3.2246     0.5537 O.2     
  20 C20           -4.5332    -4.0541    -1.1372 C.ar    
  21 C21           -5.7461    -4.7612    -1.1989 C.ar    
  22 N22           -6.7306    -4.4281    -0.3707 N.ar    
  23 C23           -6.5776    -3.4465     0.4930 C.ar    
  24 N24           -3.7128    -4.5864    -2.0747 N.2     
  25 C25           -4.3297    -5.5514    -2.6926 C.2     
  26 N26           -5.5876    -5.6982    -2.1883 N.pl3   
  27 C27           -5.7853     2.1814     1.3438 C.ar    
  28 C28           -4.6344     1.9736     3.4359 C.ar    
  29 C29           -2.7323    -1.7888     2.2509 C.3     
  30 H30            0.6562     3.5184    -0.6557 H       
  31 H31            2.6300     2.6458    -1.8308 H       
  32 H32            2.8763     0.2343    -2.2327 H       
  33 H33            1.1598    -1.3430    -1.4697 H       
  34 H34           -4.6453     1.7249    -0.4052 H       
  35 H35           -2.5921     1.3534     3.3272 H       
  36 H36           -6.6768     2.5749     3.2463 H       
  37 H37           -4.1104    -0.7118     0.9933 H       
  38 H38           -2.4930    -2.4902    -0.6646 H       
  39 H39           -7.3991    -3.1984     1.1488 H       
  40 H40           -3.9073    -6.1479    -3.4877 H       
  41 H41           -6.2491    -6.3468    -2.4759 H       
  42 H42           -6.6826     2.4157     0.7903 H       
  43 H43           -4.6356     2.0416     4.5138 H       
  44 H44           -3.5238    -2.4392     2.6232 H       
  45 H45           -1.8138    -2.3641     2.1349 H       
  46 H46           -2.5657    -0.9772     2.9592 H       
@<TRIPOS>BOND
   1    1    2 ar
   2    1    3 ar
   3    1   10 1
   4    2    7 1
   5    2    6 ar
   6    3    4 ar
   7    3   30 1
   8    4    5 ar
   9    4   31 1
  10    5    6 ar
  11    5   32 1
  12    6   33 1
  13    7    8 2
  14    8    9 1
  15    8   15 1
  16    9   10 am
  17    9   11 1
  18   10   19 2
  19   11   12 ar
  20   11   13 ar
  21   12   27 ar
  22   12   34 1
  23   13   28 ar
  24   13   35 1
  25   14   27 ar
  26   14   28 ar
  27   14   36 1
  28   15   16 1
  29   15   29 1
  30   15   37 1
  31   16   17 1
  32   16   38 1
  33   17   18 ar
  34   17   20 ar
  35   18   23 ar
  36   20   21 ar
  37   20   24 1
  38   21   22 ar
  39   21   26 1
  40   22   23 ar
  41   23   39 1
  42   24   25 2
  43   25   26 1
  44   25   40 1
  45   26   41 1
  46   27   42 1
  47   28   43 1
  48   29   44 1
  49   29   45 1
  50   29   46 1

#	End of record

