#	Name: ASD02039375
#	Creating user name:	WinNT
#	Creation time:	15. 06. 2019 20:18

#	Modifying user name:	WinNT
#	Modification time:	15. 06. 2019 20:18

#	Program:	/corina/corina34_cracker 3.40 0067  02.08.2006

@<TRIPOS>MOLECULE
ASD02039375
  51   53    0    0    0
SMALL
NO_CHARGES


@<TRIPOS>ATOM
   1 C1            -0.1271     1.5236    -0.1522 C.ar    
   2 C2            -0.1250     0.1393    -0.0541 C.ar    
   3 C3            -1.3213    -0.5486    -0.1408 C.ar    
   4 C4            -2.5057     1.4158    -0.4019 C.ar    
   5 C5            -1.3372     2.1716    -0.3289 C.ar    
   6 C6            -3.8099     2.0947    -0.5910 C.ar    
   7 C7             1.1588     2.3041    -0.0620 C.3     
   8 N8             1.7992     2.3442    -1.3790 N.am    
   9 C9             1.3657     3.3275    -2.3747 C.3     
  10 C10            2.7871     1.4764    -1.6747 C.2     
  11 C11            3.1633     0.4311    -0.7071 C.2     
  12 C12            4.1818    -0.4661    -0.8446 C.2     
  13 N13            2.5635     0.1890     0.4865 N.2     
  14 C14            3.1667    -0.8083     1.0661 C.2     
  15 N15            4.1769    -1.2394     0.2666 N.pl3   
  16 O16            3.3679     1.5562    -2.7403 O.2     
  17 C17            5.0956    -2.3435     0.5549 C.3     
  18 C18           -3.8677     3.4832    -0.6953 C.ar    
  19 N19           -2.4592     0.0923    -0.3147 N.ar    
  20 C20           -4.9873     1.3445    -0.6712 C.ar    
  21 C21           -6.2022     1.9879    -0.8480 C.ar    
  22 C22           -6.2483     3.3653    -0.9449 C.ar    
  23 C23           -5.0840     4.1102    -0.8712 C.ar    
  24 C24            2.5145     4.2936    -2.6712 C.3     
  25 C25            0.9612     2.6058    -3.6618 C.3     
  26 O26           -4.9405    -0.0095    -0.5766 O.3     
  27 C27           -6.1830    -0.7094    -0.6673 C.3     
  28 F28           -6.7813    -0.4393    -1.9027 F       
  29 F29           -5.9532    -2.0845    -0.5512 F       
  30 F30           -7.0310    -0.2897     0.3632 F       
  31 H31            0.8023    -0.3956     0.0881 H       
  32 H32           -1.3229    -1.6260    -0.0652 H       
  33 H33           -1.3764     3.2486    -0.3996 H       
  34 H34            0.9445     3.3204     0.2688 H       
  35 H35            1.8267     1.8227     0.6523 H       
  36 H36            0.5129     3.8850    -1.9874 H       
  37 H37            4.8616    -0.5447    -1.6801 H       
  38 H38            2.9078    -1.2240     2.0287 H       
  39 H39            4.6794    -3.2732     0.1668 H       
  40 H40            6.0572    -2.1496     0.0796 H       
  41 H41            5.2338    -2.4293     1.6327 H       
  42 H42           -2.9613     4.0677    -0.6383 H       
  43 H43           -7.1136     1.4120    -0.9104 H       
  44 H44           -7.1968     3.8629    -1.0834 H       
  45 H45           -5.1283     5.1866    -0.9475 H       
  46 H46            3.3337     3.7503    -3.1422 H       
  47 H47            2.1653     5.0782    -3.3425 H       
  48 H48            2.8628     4.7405    -1.7400 H       
  49 H49            0.2084     1.8512    -3.4340 H       
  50 H50            0.5508     3.3266    -4.3689 H       
  51 H51            1.8364     2.1255    -4.0993 H       
@<TRIPOS>BOND
   1    1    2 ar
   2    1    7 1
   3    1    5 ar
   4    2    3 ar
   5    2   31 1
   6    3   19 ar
   7    3   32 1
   8    4    5 ar
   9    4    6 1
  10    4   19 ar
  11    5   33 1
  12    6   18 ar
  13    6   20 ar
  14    7    8 1
  15    7   34 1
  16    7   35 1
  17    8    9 1
  18    8   10 am
  19    9   24 1
  20    9   25 1
  21    9   36 1
  22   10   11 1
  23   10   16 2
  24   11   12 2
  25   11   13 1
  26   12   15 1
  27   12   37 1
  28   13   14 2
  29   14   15 1
  30   14   38 1
  31   15   17 1
  32   17   39 1
  33   17   40 1
  34   17   41 1
  35   18   23 ar
  36   18   42 1
  37   20   21 ar
  38   20   26 1
  39   21   22 ar
  40   21   43 1
  41   22   23 ar
  42   22   44 1
  43   23   45 1
  44   24   46 1
  45   24   47 1
  46   24   48 1
  47   25   49 1
  48   25   50 1
  49   25   51 1
  50   26   27 1
  51   27   28 1
  52   27   29 1
  53   27   30 1

#	End of record

