#	Name: ASD03330629
#	Creating user name:	WinNT
#	Creation time:	15. 06. 2019 20:37

#	Modifying user name:	WinNT
#	Modification time:	15. 06. 2019 20:37

#	Program:	/corina/corina34_cracker 3.40 0067  02.08.2006

@<TRIPOS>MOLECULE
ASD03330629
  67   69    0    0    0
SMALL
NO_CHARGES


@<TRIPOS>ATOM
   1 C1            -0.3227     1.1656     0.8584 C.2     
   2 N2            -0.3511    -0.1675     1.0924 N.pl3   
   3 C3             0.9825     1.5536     0.9008 C.2     
   4 N4             1.7308     0.4551     1.1415 N.2     
   5 C5             0.9379    -0.5847     1.2523 C.2     
   6 C6             1.3697    -1.9766     1.5084 C.ar    
   7 C7             1.4876     2.9257     0.7170 C.2     
   8 O8             0.7101     3.8365     0.5046 O.2     
   9 C9             3.3131     4.5354     0.6015 C.3     
  10 N10            2.8111     3.1713     0.7842 N.am    
  11 C11            3.4850     4.8198    -0.8920 C.3     
  12 C12            2.1161     4.8032    -1.5752 C.3     
  13 C13            4.1313     6.1940    -1.0784 C.3     
  14 C14            4.3795     3.7467    -1.5159 C.3     
  15 C15            4.6427     4.6786     1.2964 C.2     
  16 N16            5.1780     5.9016     1.4816 N.am    
  17 O17            5.2310     3.6934     1.6889 O.2     
  18 C18            6.5029     6.0365     2.0919 C.3     
  19 C19           -1.5607    -0.9914     1.1704 C.3     
  20 C20           -2.4704    -0.6631    -0.0174 C.3     
  21 C21           -3.3823     0.5065     0.3399 C.3     
  22 N22           -2.7029     1.4491     1.2312 N.3     
  23 C23           -1.5207     2.0377     0.5847 C.3     
  24 C24           -3.6254     2.4946     1.6935 C.3     
  25 C25            2.6219    -2.4121     1.0742 C.ar    
  26 C26            3.0217    -3.7111     1.3145 C.ar    
  27 C27            2.1848    -4.5834     1.9848 C.ar    
  28 C28            0.9367    -4.1587     2.4206 C.ar    
  29 C29            0.5285    -2.8559     2.1896 C.ar    
  30 F30            5.3224    -3.9497     1.8472 F       
  31 C31            4.3746    -4.1799     0.8443 C.3     
  32 F32            4.3206    -5.5485     0.5590 F       
  33 F33            4.7366    -3.4769    -0.3098 F       
  34 O34            0.1177    -5.0205     3.0792 O.3     
  35 C35            0.6054    -6.3474     3.2882 C.3     
  36 H36            2.6026     5.2441     1.0269 H       
  37 H37            3.4312     2.4449     0.9536 H       
  38 H38            1.4789     5.5677    -1.1307 H       
  39 H39            2.2386     5.0058    -2.6392 H       
  40 H40            1.6557     3.8242    -1.4424 H       
  41 H41            5.0908     6.2174    -0.5617 H       
  42 H42            4.2862     6.3816    -2.1409 H       
  43 H43            3.4774     6.9621    -0.6654 H       
  44 H44            3.9190     2.7677    -1.3831 H       
  45 H45            4.5019     3.9493    -2.5799 H       
  46 H46            5.3547     3.7586    -1.0292 H       
  47 H47            4.6859     6.6925     1.2109 H       
  48 H48            6.7662     7.0921     2.1592 H       
  49 H49            6.4888     5.6011     3.0911 H       
  50 H50            7.2397     5.5166     1.4795 H       
  51 H51           -1.2859    -2.0457     1.1383 H       
  52 H52           -2.0864    -0.7793     2.1014 H       
  53 H53           -1.8590    -0.3960    -0.8793 H       
  54 H54           -3.0776    -1.5350    -0.2609 H       
  55 H55           -3.6743     1.0246    -0.5736 H       
  56 H56           -4.2753     0.1256     0.8353 H       
  57 H57           -1.3445     3.0354     0.9867 H       
  58 H58           -1.6871     2.1011    -0.4906 H       
  59 H59           -4.4526     2.0358     2.2351 H       
  60 H60           -3.0951     3.1810     2.3537 H       
  61 H61           -4.0129     3.0429     0.8349 H       
  62 H62            3.2781    -1.7331     0.5499 H       
  63 H63            2.5026    -5.5989     2.1699 H       
  64 H64           -0.4418    -2.5242     2.5283 H       
  65 H65            0.8094    -6.8154     2.3252 H       
  66 H66            1.5230    -6.3089     3.8752 H       
  67 H67           -0.1444    -6.9298     3.8237 H       
@<TRIPOS>BOND
   1    1    2 1
   2    1    3 2
   3    1   23 1
   4    2   19 1
   5    2    5 1
   6    3    4 1
   7    3    7 1
   8    4    5 2
   9    5    6 1
  10    6   25 ar
  11    6   29 ar
  12    7    8 2
  13    7   10 am
  14    9   10 1
  15    9   11 1
  16    9   15 1
  17    9   36 1
  18   10   37 1
  19   11   12 1
  20   11   13 1
  21   11   14 1
  22   12   38 1
  23   12   39 1
  24   12   40 1
  25   13   41 1
  26   13   42 1
  27   13   43 1
  28   14   44 1
  29   14   45 1
  30   14   46 1
  31   15   16 am
  32   15   17 2
  33   16   18 1
  34   16   47 1
  35   18   48 1
  36   18   49 1
  37   18   50 1
  38   19   20 1
  39   19   51 1
  40   19   52 1
  41   20   21 1
  42   20   53 1
  43   20   54 1
  44   21   22 1
  45   21   55 1
  46   21   56 1
  47   22   23 1
  48   22   24 1
  49   23   57 1
  50   23   58 1
  51   24   59 1
  52   24   60 1
  53   24   61 1
  54   25   26 ar
  55   25   62 1
  56   26   27 ar
  57   26   31 1
  58   27   28 ar
  59   27   63 1
  60   28   29 ar
  61   28   34 1
  62   29   64 1
  63   30   31 1
  64   31   32 1
  65   31   33 1
  66   34   35 1
  67   35   65 1
  68   35   66 1
  69   35   67 1

#	End of record

