#	Name: ASD03430886
#	Creating user name:	WinNT
#	Creation time:	15. 06. 2019 20:41

#	Modifying user name:	WinNT
#	Modification time:	15. 06. 2019 20:41

#	Program:	/corina/corina34_cracker 3.40 0067  02.08.2006

@<TRIPOS>MOLECULE
ASD03430886
  40   45    0    0    0
SMALL
NO_CHARGES


@<TRIPOS>ATOM
   1 O1            -0.0175     1.4359     0.0099 O.3     
   2 C2             0.0021    -0.0041     0.0020 C.3     
   3 C3             1.3455    -0.3164    -0.6713 C.3     
   4 C4             2.1579     0.9229    -0.4092 C.ar    
   5 C5             1.2618     1.9073     0.0003 C.ar    
   6 C6             1.7452     3.1685     0.3262 C.ar    
   7 C7             3.1031     3.4527     0.2356 C.ar    
   8 C8             3.9760     2.4540    -0.1778 C.ar    
   9 C9             3.5052     1.2000    -0.5011 C.ar    
  10 N10            2.1640    -2.4027    -1.1219 N.am    
  11 C11            1.9854    -1.5471    -0.0959 C.2     
  12 C12            1.1877    -0.5971    -2.1362 C.ar    
  13 C13            0.6718     0.1217    -3.1918 C.ar    
  14 C14            0.6648    -0.4218    -4.4684 C.ar    
  15 C15            1.1844    -1.6937    -4.6788 C.ar    
  16 C16            1.7012    -2.4158    -3.6158 C.ar    
  17 C17            1.7059    -1.8746    -2.3338 C.ar    
  18 O18            2.2833    -1.7345     1.0648 O.2     
  19 C19            5.3716     3.0459    -0.1602 C.3     
  20 O20            3.7692     4.6139     0.4866 O.3     
  21 O21            0.1425     0.2983    -5.4991 O.3     
  22 C22            0.4892    -0.1258    -6.8219 C.3     
  23 C23            0.3258    -1.6499    -6.8960 C.3     
  24 O24            1.1954    -2.2421    -5.9251 O.3     
  25 C25            5.1645     4.3275     0.6812 C.3     
  26 H26           -0.0218    -0.3969     1.0185 H       
  27 H27           -0.8264    -0.3990    -0.5860 H       
  28 H28            1.0591     3.9359     0.6529 H       
  29 H29            4.1924     0.4333    -0.8272 H       
  30 H30            2.5631    -3.2820    -1.0307 H       
  31 H31            0.2714     1.1109    -3.0254 H       
  32 H32            2.1024    -3.4044    -3.7828 H       
  33 H33            6.0752     2.3701     0.3260 H       
  34 H34            5.7033     3.2915    -1.1690 H       
  35 H35           -0.1721     0.3504    -7.5458 H       
  36 H36            1.5236     0.1438    -7.0352 H       
  37 H37           -0.7073    -1.9199    -6.6774 H       
  38 H38            0.5948    -2.0004    -7.8925 H       
  39 H39            5.3766     4.1372     1.7333 H       
  40 H40            5.7823     5.1419     0.3028 H       
@<TRIPOS>BOND
   1    1    2 1
   2    1    5 1
   3    2    3 1
   4    2   26 1
   5    2   27 1
   6    3    4 1
   7    3   11 1
   8    3   12 1
   9    4    5 ar
  10    4    9 ar
  11    5    6 ar
  12    6    7 ar
  13    6   28 1
  14    7    8 ar
  15    7   20 1
  16    8    9 ar
  17    8   19 1
  18    9   29 1
  19   10   11 am
  20   10   17 1
  21   10   30 1
  22   11   18 2
  23   12   13 ar
  24   12   17 ar
  25   13   14 ar
  26   13   31 1
  27   14   15 ar
  28   14   21 1
  29   15   16 ar
  30   15   24 1
  31   16   17 ar
  32   16   32 1
  33   19   25 1
  34   19   33 1
  35   19   34 1
  36   20   25 1
  37   21   22 1
  38   22   23 1
  39   22   35 1
  40   22   36 1
  41   23   24 1
  42   23   37 1
  43   23   38 1
  44   25   39 1
  45   25   40 1

#	End of record

