#	Name: ASD07300816
#	Creating user name:	WinNT
#	Creation time:	15. 06. 2019 21:10

#	Modifying user name:	WinNT
#	Modification time:	15. 06. 2019 21:10

#	Program:	/corina/corina34_cracker 3.40 0067  02.08.2006

@<TRIPOS>MOLECULE
ASD07300816
  53   57    0    0    0
SMALL
NO_CHARGES


@<TRIPOS>ATOM
   1 C1            -0.0172     1.4140     0.0098 C.2     
   2 C2             0.0021    -0.0041     0.0020 C.2     
   3 N3             1.1808     2.0893     0.0020 N.pl3   
   4 N4             1.1598    -0.6390    -0.0124 N.2     
   5 C5             2.3145     0.0264    -0.0199 C.2     
   6 C6             2.3484     1.3776    -0.0130 C.2     
   7 N7            -0.9935     2.3044     0.0292 N.2     
   8 C8            -0.4747     3.5309     0.0279 C.2     
   9 C9             0.8879     3.4248     0.0120 C.2     
  10 C10           -2.4705    -2.8374     0.0114 C.ar    
  11 C11           -1.2650    -2.1662     0.0030 C.ar    
  12 C12           -1.2674    -0.7675     0.0105 C.ar    
  13 C13           -2.5017    -0.1094     0.0268 C.ar    
  14 C14           -3.6597    -0.8596     0.0347 C.ar    
  15 N15           -3.6128    -2.1779     0.0267 N.ar    
  16 N16            3.5915     5.8018     0.4724 N.pl3   
  17 N17            2.8277     6.4492    -0.5062 N.2     
  18 C18            1.7928     5.7028    -0.7878 C.2     
  19 C19            1.8602     4.5416     0.0087 C.2     
  20 C20            2.9856     4.6347     0.7771 C.2     
  21 C21            4.8370     6.3019     1.0598 C.3     
  22 C22            5.8405     6.6055    -0.0545 C.3     
  23 C23            7.1813     7.0085     0.5626 C.3     
  24 C24            6.0321     5.3596    -0.9216 C.3     
  25 O25            5.3466     7.6763    -0.8617 O.3     
  26 C26            6.2134     8.0407    -1.9377 C.3     
  27 C27           -1.2577     4.8184     0.0465 C.3     
  28 C28           -2.2225     5.0753    -1.1129 C.3     
  29 C29           -2.7679     4.7236     0.2727 C.3     
  30 H30            3.2427    -0.5257    -0.0317 H       
  31 H31            3.2966     1.8946    -0.0196 H       
  32 H32           -2.4790    -3.9174     0.0011 H       
  33 H33           -0.3335    -2.7127    -0.0092 H       
  34 H34           -2.5475     0.9696     0.0334 H       
  35 H35           -4.6175    -0.3607     0.0473 H       
  36 H36            1.0200     5.9353    -1.5055 H       
  37 H37            3.3285     3.9067     1.4974 H       
  38 H38            4.6331     7.2125     1.6231 H       
  39 H39            5.2526     5.5471     1.7273 H       
  40 H40            7.5581     6.1917     1.1782 H       
  41 H41            7.8963     7.2248    -0.2313 H       
  42 H42            7.0448     7.8961     1.1803 H       
  43 H43            5.0769     5.0725    -1.3613 H       
  44 H44            6.7471     5.5759    -1.7155 H       
  45 H45            6.4089     4.5428    -0.3060 H       
  46 H46            5.7675     8.8596    -2.5021 H       
  47 H47            7.1764     8.3576    -1.5371 H       
  48 H48            6.3577     7.1828    -2.5945 H       
  49 H49           -0.7382     5.6785     0.4689 H       
  50 H50           -2.3380     6.1044    -1.4529 H       
  51 H51           -2.2909     4.3131    -1.8890 H       
  52 H52           -3.1951     3.7300     0.4081 H       
  53 H53           -3.2422     5.5214     0.8442 H       
@<TRIPOS>BOND
   1    1    2 1
   2    1    3 1
   3    1    7 2
   4    2    4 2
   5    2   12 1
   6    3    6 1
   7    3    9 1
   8    4    5 1
   9    5    6 2
  10    5   30 1
  11    6   31 1
  12    7    8 1
  13    8    9 2
  14    8   27 1
  15    9   19 1
  16   10   11 ar
  17   10   15 ar
  18   10   32 1
  19   11   12 ar
  20   11   33 1
  21   12   13 ar
  22   13   14 ar
  23   13   34 1
  24   14   15 ar
  25   14   35 1
  26   16   17 1
  27   16   20 1
  28   16   21 1
  29   17   18 2
  30   18   19 1
  31   18   36 1
  32   19   20 2
  33   20   37 1
  34   21   22 1
  35   21   38 1
  36   21   39 1
  37   22   23 1
  38   22   24 1
  39   22   25 1
  40   23   40 1
  41   23   41 1
  42   23   42 1
  43   24   43 1
  44   24   44 1
  45   24   45 1
  46   25   26 1
  47   26   46 1
  48   26   47 1
  49   26   48 1
  50   27   28 1
  51   27   29 1
  52   27   49 1
  53   28   29 1
  54   28   50 1
  55   28   51 1
  56   29   52 1
  57   29   53 1

#	End of record

