#	Name: ASD04880419
#	Creating user name:	WinNT
#	Creation time:	15. 06. 2019 20:53

#	Modifying user name:	WinNT
#	Modification time:	15. 06. 2019 20:53

#	Program:	/corina/corina34_cracker 3.40 0067  02.08.2006

@<TRIPOS>MOLECULE
ASD04880419
  44   46    0    0    0
SMALL
NO_CHARGES


@<TRIPOS>ATOM
   1 C1            -0.0168     1.3889     0.0097 C.ar    
   2 C2             0.0021    -0.0041     0.0020 C.ar    
   3 C3            -1.1854    -0.7116     0.0096 C.ar    
   4 C4            -2.4030    -0.0263     0.0249 C.ar    
   5 C5            -2.4142     1.3708     0.0325 C.ar    
   6 C6            -1.2255     2.0697     0.0306 C.ar    
   7 C7            -3.6726    -0.7756     0.0325 C.2     
   8 N8            -3.7781    -2.0596     0.0266 N.2     
   9 N9            -5.0921    -2.5229     0.0361 N.am    
  10 C10           -6.0038    -1.3678     0.0506 C.3     
  11 C11           -5.0514    -0.1556     0.0549 C.3     
  12 C12           -5.4670    -3.8174     0.0320 C.2     
  13 C13           -4.4231    -4.9042     0.0163 C.3     
  14 O14           -6.6449    -4.1079     0.0408 O.2     
  15 C15           -5.0997    -6.2507     0.0146 C.ar    
  16 C16           -5.4206    -6.8611    -1.1833 C.ar    
  17 O17            1.1520     2.0829     0.0022 O.3     
  18 C18            1.0600     3.5089     0.0108 C.3     
  19 C19           -5.3941    -6.8775     1.2108 C.ar    
  20 C20           -6.0149    -8.1130     1.2108 C.ar    
  21 C21           -6.3413    -8.7227     0.0145 C.ar    
  22 C22           -6.0421    -8.0981    -1.1847 C.ar    
  23 F23           -6.3612    -8.6931    -2.3549 F       
  24 O24            1.1889    -0.6679    -0.0133 O.3     
  25 C25            1.1336    -2.0958    -0.0204 C.3     
  26 H26           -1.1721    -1.7915     0.0033 H       
  27 H27           -3.3538     1.9033     0.0439 H       
  28 H28           -1.2355     3.1496     0.0369 H       
  29 H29           -6.6320    -1.3637    -0.8402 H       
  30 H30           -6.6156    -1.3733     0.9527 H       
  31 H31           -5.1945     0.4398     0.9567 H       
  32 H32           -5.2047     0.4542    -0.8354 H       
  33 H33           -3.8088    -4.8050    -0.8786 H       
  34 H34           -3.7929    -4.8154     0.9013 H       
  35 H35           -5.1868    -6.3730    -2.1180 H       
  36 H36            0.5323     3.8335     0.9076 H       
  37 H37            2.0621     3.9377     0.0035 H       
  38 H38            0.5153     3.8431    -0.8723 H       
  39 H39           -5.1387    -6.4020     2.1463 H       
  40 H40           -6.2444    -8.6018     2.1460 H       
  41 H41           -6.8255    -9.6881     0.0147 H       
  42 H42            0.5973    -2.4342    -0.9070 H       
  43 H43            2.1464    -2.4986    -0.0327 H       
  44 H44            0.6150    -2.4437     0.8729 H       
@<TRIPOS>BOND
   1    1    2 ar
   2    1   17 1
   3    1    6 ar
   4    2    3 ar
   5    2   24 1
   6    3    4 ar
   7    3   26 1
   8    4    5 ar
   9    4    7 1
  10    5    6 ar
  11    5   27 1
  12    6   28 1
  13    7    8 2
  14    7   11 1
  15    8    9 1
  16    9   10 1
  17    9   12 am
  18   10   11 1
  19   10   29 1
  20   10   30 1
  21   11   31 1
  22   11   32 1
  23   12   13 1
  24   12   14 2
  25   13   15 1
  26   13   33 1
  27   13   34 1
  28   15   16 ar
  29   15   19 ar
  30   16   22 ar
  31   16   35 1
  32   17   18 1
  33   18   36 1
  34   18   37 1
  35   18   38 1
  36   19   20 ar
  37   19   39 1
  38   20   21 ar
  39   20   40 1
  40   21   22 ar
  41   21   41 1
  42   22   23 1
  43   24   25 1
  44   25   42 1
  45   25   43 1
  46   25   44 1

#	End of record

