#	Name: ASD01000048
#	Creating user name:	WinNT
#	Creation time:	15. 06. 2019 18:54

#	Modifying user name:	WinNT
#	Modification time:	15. 06. 2019 18:54

#	Program:	/corina/corina34_cracker 3.40 0067  02.08.2006

@<TRIPOS>MOLECULE
ASD01000048
  38   40    0    0    0
SMALL
NO_CHARGES


@<TRIPOS>ATOM
   1 C1             0.6598     1.6651     0.4199 C.ar    
   2 C2             0.4835     0.3052     0.2477 C.ar    
   3 C3             1.5795    -0.5375     0.2321 C.ar    
   4 C4             2.8515    -0.0199     0.3882 C.ar    
   5 C5             3.0279     1.3406     0.5596 C.ar    
   6 C6             1.9322     2.1829     0.5766 C.ar    
   7 C7             1.3871    -2.0205     0.0453 C.3     
   8 N8             2.3648    -2.4828    -0.9541 N.am    
   9 C9             1.4407    -2.6742     1.4113 C.2     
  10 C10            2.3760    -3.6295     1.6152 C.2     
  11 N11            3.2407    -3.9913     0.6231 N.am    
  12 C12            3.2375    -3.4467    -0.6000 C.2     
  13 C13            0.5434    -2.2977     2.4383 C.2     
  14 O14            4.0478    -3.8354    -1.4186 O.2     
  15 O15            0.9603    -1.7374     3.4359 O.2     
  16 C16           -0.9017    -2.5849     2.3002 C.ar    
  17 C17           -1.8010    -2.1363     3.2686 C.ar    
  18 C18           -3.1470    -2.4074     3.1340 C.ar    
  19 *19            4.4636     1.9247     0.7368 Du      
  20 C20            2.4645    -4.3057     2.9591 C.3     
  21 C21           -3.6059    -3.1223     2.0419 C.ar    
  22 C22           -2.7196    -3.5699     1.0783 C.ar    
  23 C23           -1.3719    -3.3005     1.1982 C.ar    
  24 H24           -0.1959     2.3239     0.4276 H       
  25 H25           -0.5104    -0.0993     0.1257 H       
  26 H26            3.7075    -0.6782     0.3767 H       
  27 H27            2.0700     3.2456     0.7108 H       
  28 H28            0.3889    -2.1780    -0.3631 H       
  29 H29            2.3800    -2.1027    -1.8464 H       
  30 H30            3.8949    -4.6813     0.8152 H       
  31 H31           -1.4440    -1.5784     4.1217 H       
  32 H32           -3.8439    -2.0611     3.8829 H       
  33 H33            1.7542    -5.1317     2.9977 H       
  34 H34            3.4745    -4.6878     3.1078 H       
  35 H35            2.2288    -3.5868     3.7438 H       
  36 H36           -4.6605    -3.3322     1.9414 H       
  37 H37           -3.0841    -4.1277     0.2284 H       
  38 H38           -0.6810    -3.6501     0.4452 H       
@<TRIPOS>BOND
   1    1    2 ar
   2    1    6 ar
   3    1   24 1
   4    2    3 ar
   5    2   25 1
   6    3    4 ar
   7    3    7 1
   8    4    5 ar
   9    4   26 1
  10    5    6 ar
  11    5   19 1
  12    6   27 1
  13    7    8 1
  14    7    9 1
  15    7   28 1
  16    8   12 am
  17    8   29 1
  18    9   10 2
  19    9   13 1
  20   10   11 1
  21   10   20 1
  22   11   12 am
  23   11   30 1
  24   12   14 2
  25   13   15 2
  26   13   16 1
  27   16   17 ar
  28   16   23 ar
  29   17   18 ar
  30   17   31 1
  31   18   21 ar
  32   18   32 1
  33   20   33 1
  34   20   34 1
  35   20   35 1
  36   21   22 ar
  37   21   36 1
  38   22   23 ar
  39   22   37 1
  40   23   38 1

#	End of record

