#	Name: ASD03331302
#	Creating user name:	WinNT
#	Creation time:	15. 06. 2019 20:38

#	Modifying user name:	WinNT
#	Modification time:	15. 06. 2019 20:38

#	Program:	/corina/corina34_cracker 3.40 0067  02.08.2006

@<TRIPOS>MOLECULE
ASD03331302
  53   55    0    0    0
SMALL
NO_CHARGES


@<TRIPOS>ATOM
   1 C1            -0.0991     1.1686     0.6113 C.ar    
   2 C2            -0.0837    -0.2993     0.4322 C.2     
   3 N3            -1.1667    -1.1164     0.4869 N.pl3   
   4 C4            -0.7293    -2.3923     0.2723 C.2     
   5 C5             0.6115    -2.3305     0.0886 C.2     
   6 N6             0.9804    -1.0319     0.1876 N.2     
   7 C7             1.5064    -3.4709    -0.1761 C.2     
   8 N8             2.8284    -3.2662    -0.3399 N.am    
   9 C9             0.5845     1.9922    -0.2868 C.ar    
  10 O10            1.0520    -4.5968    -0.2467 O.2     
  11 C11            3.7180    -4.4000    -0.6030 C.3     
  12 C12            3.7281    -4.7031    -2.1027 C.3     
  13 C13            5.1143    -4.0586    -0.1502 C.2     
  14 C14            4.1140    -3.4403    -2.8756 C.3     
  15 C15           -2.5738    -0.7815     0.7236 C.3     
  16 C16           -3.4281    -1.9769     0.2800 C.3     
  17 O17           -2.8979    -3.1846     0.8326 O.3     
  18 C18           -1.6447    -3.5895     0.2612 C.3     
  19 N19            5.9541    -5.0374     0.2411 N.am    
  20 C20            4.7446    -5.8092    -2.3927 C.3     
  21 C21            2.3356    -5.1627    -2.5394 C.3     
  22 C22            0.5652     3.3634    -0.1133 C.ar    
  23 C23           -0.1289     3.9191     0.9471 C.ar    
  24 C24           -0.8080     3.1064     1.8400 C.ar    
  25 C25           -0.8013     1.7373     1.6747 C.ar    
  26 Cl26          -0.1480     5.6419     1.1597 Cl      
  27 O27            5.4822    -2.9030    -0.1379 O.2     
  28 C28            7.2710    -4.6983     0.7859 C.3     
  29 F29            1.2628     1.4499    -1.3217 F       
  30 H30            3.1908    -2.3682    -0.2836 H       
  31 H31            3.3630    -5.2746    -0.0580 H       
  32 H32            5.1060    -3.1128    -2.5645 H       
  33 H33            4.1212    -3.6562    -3.9440 H       
  34 H34            3.3899    -2.6523    -2.6690 H       
  35 H35           -2.7331    -0.5886     1.7845 H       
  36 H36           -2.8451     0.1005     0.1435 H       
  37 H37           -4.4522    -1.8389     0.6270 H       
  38 H38           -3.4214    -2.0429    -0.8080 H       
  39 H39           -1.7979    -3.9283    -0.7634 H       
  40 H40           -1.2097    -4.3927     0.8559 H       
  41 H41            5.6865    -5.9664     0.1620 H       
  42 H42            4.4393    -6.7250    -1.8865 H       
  43 H43            4.7921    -5.9864    -3.4671 H       
  44 H44            5.7265    -5.5042    -2.0310 H       
  45 H45            1.6115    -4.3747    -2.3328 H       
  46 H46            2.3428    -5.3786    -3.6078 H       
  47 H47            2.0607    -6.0623    -1.9888 H       
  48 H48            1.0928     4.0021    -0.8062 H       
  49 H49           -1.3474     3.5465     2.6657 H       
  50 H50           -1.3318     1.1057     2.3719 H       
  51 H51            7.8037    -5.6133     1.0449 H       
  52 H52            7.8413    -4.1447     0.0399 H       
  53 H53            7.1481    -4.0845     1.6782 H       
@<TRIPOS>BOND
   1    1    2 1
   2    1    9 ar
   3    1   25 ar
   4    2    3 1
   5    2    6 2
   6    3    4 1
   7    3   15 1
   8    4    5 2
   9    4   18 1
  10    5    6 1
  11    5    7 1
  12    7    8 am
  13    7   10 2
  14    8   11 1
  15    8   30 1
  16    9   22 ar
  17    9   29 1
  18   11   12 1
  19   11   13 1
  20   11   31 1
  21   12   14 1
  22   12   20 1
  23   12   21 1
  24   13   19 am
  25   13   27 2
  26   14   32 1
  27   14   33 1
  28   14   34 1
  29   15   16 1
  30   15   35 1
  31   15   36 1
  32   16   17 1
  33   16   37 1
  34   16   38 1
  35   17   18 1
  36   18   39 1
  37   18   40 1
  38   19   28 1
  39   19   41 1
  40   20   42 1
  41   20   43 1
  42   20   44 1
  43   21   45 1
  44   21   46 1
  45   21   47 1
  46   22   23 ar
  47   22   48 1
  48   23   24 ar
  49   23   26 1
  50   24   25 ar
  51   24   49 1
  52   25   50 1
  53   28   51 1
  54   28   52 1
  55   28   53 1

#	End of record

