#	Name: ASD04560186
#	Creating user name:	WinNT
#	Creation time:	15. 06. 2019 20:49

#	Modifying user name:	WinNT
#	Modification time:	15. 06. 2019 20:49

#	Program:	/corina/corina34_cracker 3.40 0067  02.08.2006

@<TRIPOS>MOLECULE
ASD04560186
  48   51    0    0    0
SMALL
NO_CHARGES


@<TRIPOS>ATOM
   1 C1             0.0970     1.0935    -0.4922 C.ar    
   2 C2             0.1952    -0.2710    -0.4814 C.ar    
   3 C3             1.4512    -0.8658    -0.3630 C.ar    
   4 N4             2.5484    -0.1268    -0.2605 N.ar    
   5 C5             2.4980     1.1887    -0.2667 C.ar    
   6 C6             1.2744     1.8507    -0.3827 C.ar    
   7 C7             1.2192     3.3243    -0.3900 C.2     
   8 O8             0.1486     3.8922    -0.4915 O.2     
   9 N9             2.3552     4.0418    -0.2843 N.am    
  10 C10            2.3167     5.4334    -0.4065 C.ar    
  11 C11            3.1783     6.2205     0.3485 C.ar    
  12 C12            1.3815     7.4009    -1.4094 C.ar    
  13 C13            1.4208     6.0282    -1.2871 C.ar    
  14 S14            1.5826    -2.6228    -0.3486 S.3     
  15 C15            3.3758    -2.8025    -0.1803 C.3     
  16 C16            3.7329    -4.2662    -0.1451 C.ar    
  17 C17            3.9156    -4.9690    -1.3347 C.ar    
  18 C18            4.2463    -6.3227    -1.2948 C.ar    
  19 C19            4.3908    -6.9592    -0.0794 C.ar    
  20 C20            4.2078    -6.2566     1.0987 C.ar    
  21 C21            3.8851    -4.9117     1.0650 C.ar    
  22 B22            3.7491    -4.2390    -2.7146 Du      
  23 O23            4.4093    -4.7406    -3.8674 O.3     
  24 O24            2.9384    -3.0771    -2.8100 O.3     
  25 C25            3.1422     7.5935     0.2291 C.ar    
  26 C26            2.2410     8.1922    -0.6494 C.ar    
  27 C27            2.2008     9.6700    -0.7799 C.2     
  28 N28            1.4061    10.3698    -1.5653 N.2     
  29 N29            1.6775    11.6174    -1.3900 N.pl3   
  30 N30            2.6185    11.7303    -0.5188 N.2     
  31 N31            2.9614    10.5534    -0.1178 N.2     
  32 H32           -0.8638     1.5773    -0.5873 H       
  33 H33           -0.6916    -0.8819    -0.5635 H       
  34 H34            3.4104     1.7602    -0.1815 H       
  35 H35            3.1996     3.5922    -0.1234 H       
  36 H36            3.8763     5.7562     1.0294 H       
  37 H37            0.6855     7.8627    -2.0940 H       
  38 H38            0.7552     5.4147    -1.8761 H       
  39 H39            3.8697    -2.3283    -1.0284 H       
  40 H40            3.7035    -2.3263     0.7438 H       
  41 H41            4.3886    -6.8722    -2.2136 H       
  42 H42            4.6470    -8.0079    -0.0473 H       
  43 H43            4.3216    -6.7590     2.0480 H       
  44 H44            3.7437    -4.3680     1.9874 H       
  45 H45            4.2469    -4.2251    -4.6693 H       
  46 H46            2.8969    -2.6983    -3.6987 H       
  47 H47            3.8116     8.2047     0.8161 H       
  48 H48            1.2413    12.3556    -1.8436 H       
@<TRIPOS>BOND
   1    1    2 ar
   2    1    6 ar
   3    1   32 1
   4    2    3 ar
   5    2   33 1
   6    3    4 ar
   7    3   14 1
   8    4    5 ar
   9    5    6 ar
  10    5   34 1
  11    6    7 1
  12    7    8 2
  13    7    9 am
  14    9   10 1
  15    9   35 1
  16   10   11 ar
  17   10   13 ar
  18   11   25 ar
  19   11   36 1
  20   12   13 ar
  21   12   26 ar
  22   12   37 1
  23   13   38 1
  24   14   15 1
  25   15   16 1
  26   15   39 1
  27   15   40 1
  28   16   17 ar
  29   16   21 ar
  30   17   18 ar
  31   17   22 1
  32   18   19 ar
  33   18   41 1
  34   19   20 ar
  35   19   42 1
  36   20   21 ar
  37   20   43 1
  38   21   44 1
  39   22   23 1
  40   22   24 1
  41   23   45 1
  42   24   46 1
  43   25   26 ar
  44   25   47 1
  45   26   27 1
  46   27   28 2
  47   27   31 1
  48   28   29 1
  49   29   30 1
  50   29   48 1
  51   30   31 2

#	End of record

