#	Name: ASD01410760
#	Creating user name:	WinNT
#	Creation time:	15. 06. 2019 19:18

#	Modifying user name:	WinNT
#	Modification time:	15. 06. 2019 19:18

#	Program:	/corina/corina34_cracker 3.40 0067  02.08.2006

@<TRIPOS>MOLECULE
ASD01410760
  83   88    0    0    0
SMALL
NO_CHARGES


@<TRIPOS>ATOM
   1 C1             0.3749    -0.4599    -0.3609 C.3     
   2 C2             0.0957    -1.9587    -0.1091 C.3     
   3 N3            -0.1695    -2.0241     1.3380 N.am    
   4 C4            -0.9501    -0.8219     1.6701 C.3     
   5 C5            -0.6151     0.2386     0.6023 C.3     
   6 O6             1.7247    -0.1328    -0.0246 O.3     
   7 C7            -2.4230    -1.1388     1.6367 C.2     
   8 O8            -2.7960    -2.2598     1.3625 O.2     
   9 N9            -3.3258    -0.1765     1.9116 N.am    
  10 C10           -4.7574    -0.4534     1.7705 C.3     
  11 C11           -5.2315    -0.7259     0.3662 C.2     
  12 N12           -4.6345    -0.1159    -0.6769 N.am    
  13 O13           -6.1502    -1.4942     0.1746 O.2     
  14 S14           -5.2323    -0.3192    -2.2078 S.o2    
  15 C15           -6.8739     0.4511    -2.1586 C.3     
  16 C16           -5.4460    -1.2104     2.9079 C.3     
  17 C17           -5.7153     0.2833     2.7090 C.3     
  18 C18           -7.7495     0.3284    -3.4073 C.3     
  19 C19           -8.0900    -0.4774    -2.1520 C.3     
  20 O20           -4.3523     0.4345    -3.0305 O.2     
  21 O21           -5.3466    -1.7279    -2.3552 O.2     
  22 C22           -6.5635    -2.1857     2.5326 C.3     
  23 C23           -7.0344    -2.9282     3.7848 C.3     
  24 C24            2.3050     0.8750    -0.7200 C.ar    
  25 C25            3.6352     1.2523    -0.4417 C.ar    
  26 N26            1.6301     1.5022    -1.6621 N.ar    
  27 C27            2.1476     2.4953    -2.3741 C.ar    
  28 C28            3.4196     2.9351    -2.1773 C.ar    
  29 C29            4.2087     2.3117    -1.1902 C.ar    
  30 C30            5.5262     2.7090    -0.9301 C.ar    
  31 C31            6.2466     2.0594     0.0484 C.ar    
  32 C32            5.6758     1.0129     0.7793 C.ar    
  33 C33            4.3960     0.6123     0.5470 C.ar    
  34 C34            1.3188    -2.7935    -0.4606 C.3     
  35 C35            1.2476    -4.1485     0.2429 C.3     
  36 C36            1.3135    -3.9545     1.7581 C.3     
  37 C37            0.2558    -2.9698     2.1883 C.2     
  38 C38            1.0743    -5.2957     2.4543 C.3     
  39 C39           -0.3611    -5.7569     2.1935 C.3     
  40 C40            2.0521    -6.3368     1.9056 C.3     
  41 O41           -0.2113    -3.0331     3.3058 O.2     
  42 O42            7.5251     2.4394     0.3056 O.3     
  43 C43            8.2196     1.7275     1.3317 C.3     
  44 H44            0.1617    -0.1959    -1.3968 H       
  45 H45           -0.7784    -2.2845    -0.6729 H       
  46 H46           -0.6697    -0.4570     2.6582 H       
  47 H47           -0.1447     1.1063     1.0649 H       
  48 H48           -1.5173     0.5360     0.0678 H       
  49 H49           -3.0276     0.6994     2.2028 H       
  50 H50           -3.8547     0.4421    -0.5308 H       
  51 H51           -6.9427     1.3751    -1.5845 H       
  52 H52           -4.8338    -1.5024     3.7612 H       
  53 H53           -5.2803     0.9737     3.4316 H       
  54 H54           -6.6884     0.5705     2.3108 H       
  55 H55           -8.3946     1.1715    -3.6545 H       
  56 H56           -7.3391    -0.2152    -4.2583 H       
  57 H57           -7.9036    -1.5511    -2.1772 H       
  58 H58           -8.9590    -0.1644    -1.5734 H       
  59 H59           -7.3987    -1.6332     2.1022 H       
  60 H60           -6.1890    -2.9042     1.8035 H       
  61 H61           -6.1992    -3.4807     4.2152 H       
  62 H62           -7.4089    -2.2097     4.5139 H       
  63 H63           -7.8305    -3.6230     3.5174 H       
  64 H64            1.5411     2.9681    -3.1324 H       
  65 H65            3.8189     3.7451    -2.7696 H       
  66 H66            5.9733     3.5163    -1.4911 H       
  67 H67            6.2581     0.5172     1.5419 H       
  68 H68            3.9691    -0.1975     1.1201 H       
  69 H69            1.3539    -2.9473    -1.5391 H       
  70 H70            2.2191    -2.2677    -0.1425 H       
  71 H71            0.3120    -4.6430    -0.0182 H       
  72 H72            2.0846    -4.7679    -0.0793 H       
  73 H73            2.2972    -3.5737     2.0328 H       
  74 H74            1.2298    -5.1811     3.5271 H       
  75 H75           -0.5166    -5.8716     1.1208 H       
  76 H76           -0.5315    -6.7124     2.6896 H       
  77 H77           -1.0577    -5.0152     2.5845 H       
  78 H78            3.0719    -5.9648     2.0040 H       
  79 H79            1.9480    -7.2648     2.4677 H       
  80 H80            1.8329    -6.5224     0.8541 H       
  81 H81            7.6858     1.8379     2.2756 H       
  82 H82            8.2755     0.6716     1.0672 H       
  83 H83            9.2273     2.1300     1.4349 H       
@<TRIPOS>BOND
   1    1    2 1
   2    1    6 1
   3    1    5 1
   4    1   44 1
   5    2    3 1
   6    2   34 1
   7    2   45 1
   8    3    4 1
   9    3   37 am
  10    4    5 1
  11    4    7 1
  12    4   46 1
  13    5   47 1
  14    5   48 1
  15    6   24 1
  16    7    8 2
  17    7    9 am
  18    9   10 1
  19    9   49 1
  20   10   11 1
  21   10   16 1
  22   10   17 1
  23   11   12 am
  24   11   13 2
  25   12   14 am
  26   12   50 1
  27   14   15 1
  28   14   20 2
  29   14   21 2
  30   15   18 1
  31   15   19 1
  32   15   51 1
  33   16   17 1
  34   16   22 1
  35   16   52 1
  36   17   53 1
  37   17   54 1
  38   18   19 1
  39   18   55 1
  40   18   56 1
  41   19   57 1
  42   19   58 1
  43   22   23 1
  44   22   59 1
  45   22   60 1
  46   23   61 1
  47   23   62 1
  48   23   63 1
  49   24   25 ar
  50   24   26 ar
  51   25   29 ar
  52   25   33 ar
  53   26   27 ar
  54   27   28 ar
  55   27   64 1
  56   28   29 ar
  57   28   65 1
  58   29   30 ar
  59   30   31 ar
  60   30   66 1
  61   31   32 ar
  62   31   42 1
  63   32   33 ar
  64   32   67 1
  65   33   68 1
  66   34   35 1
  67   34   69 1
  68   34   70 1
  69   35   36 1
  70   35   71 1
  71   35   72 1
  72   36   37 1
  73   36   38 1
  74   36   73 1
  75   37   41 2
  76   38   39 1
  77   38   40 1
  78   38   74 1
  79   39   75 1
  80   39   76 1
  81   39   77 1
  82   40   78 1
  83   40   79 1
  84   40   80 1
  85   42   43 1
  86   43   81 1
  87   43   82 1
  88   43   83 1

#	End of record

