#	Name: ASD01900244
#	Creating user name:	WinNT
#	Creation time:	15. 06. 2019 19:51

#	Modifying user name:	WinNT
#	Modification time:	15. 06. 2019 19:51

#	Program:	/corina/corina34_cracker 3.40 0067  02.08.2006

@<TRIPOS>MOLECULE
ASD01900244
  63   67    0    0    0
SMALL
NO_CHARGES


@<TRIPOS>ATOM
   1 C1             1.4723     0.0323    -0.6747 C.ar    
   2 C2             1.9514    -1.2324    -0.9418 C.ar    
   3 C3             3.3263    -1.4474    -1.1021 C.ar    
   4 C4             4.2217    -0.3818    -0.9836 C.ar    
   5 C5             3.7418     0.8858    -0.7092 C.ar    
   6 C6             2.3596     1.1004    -0.5648 C.ar    
   7 N7             4.5974     1.9736    -0.5623 N.pl3   
   8 C8             4.1031     3.3143    -0.8959 C.3     
   9 N9             2.7501     3.5011    -0.3710 N.am    
  10 C10            1.8858     2.4706    -0.2863 C.2     
  11 C11            5.0363     4.3630    -0.2833 C.3     
  12 C12            4.0884     3.4841    -2.4176 C.3     
  13 C13            3.6399     4.9061    -2.7624 C.3     
  14 N14            4.5618     5.8730    -2.1528 N.3     
  15 C15            4.5595     5.7597    -0.6887 C.3     
  16 C16            2.3462     4.7734     0.0514 C.ar    
  17 C17            2.7649     5.2624     1.2819 C.ar    
  18 C18            2.3661     6.5173     1.6977 C.ar    
  19 C19            1.5470     7.2893     0.8869 C.ar    
  20 C20            1.1283     6.8016    -0.3425 C.ar    
  21 C21            1.5312     5.5494    -0.7624 C.ar    
  22 C22            0.4133     9.3133     0.3640 C.3     
  23 O23            1.1540     8.5245     1.2974 O.3     
  24 C24            4.2426     7.2433    -2.5752 C.3     
  25 C25            5.1587     8.2118    -1.8725 C.ar    
  26 C26            6.3888     8.5216    -2.4223 C.ar    
  27 C27            7.2305     9.4108    -1.7778 C.ar    
  28 C28            6.8386     9.9905    -0.5803 C.ar    
  29 C29            5.6069     9.6784    -0.0327 C.ar    
  30 C30            4.7658     8.7938    -0.6821 C.ar    
  31 F31            7.6589    10.8586     0.0511 F       
  32 F32            8.4329     9.7137    -2.3141 F       
  33 O33            0.7251     2.6677     0.0179 O.2     
  34 C34            3.8293    -2.8009    -1.3959 C.2     
  35 C35            5.3080    -3.0342    -1.5687 C.3     
  36 O36            3.0535    -3.7268    -1.4987 O.2     
  37 Br37           0.7476    -2.6830    -1.0917 Br      
  38 F38           -0.8038     8.6831     0.0833 F       
  39 F39            0.1687    10.5770     0.9120 F       
  40 F40            1.1500     9.4519    -0.8173 F       
  41 H41            0.4114     0.1954    -0.5555 H       
  42 H42            5.2821    -0.5469    -1.1050 H       
  43 H43            5.5051     1.8476    -0.2444 H       
  44 H44            5.0207     4.2741     0.8030 H       
  45 H45            6.0512     4.2046    -0.6479 H       
  46 H46            5.0897     3.3124    -2.8127 H       
  47 H47            3.3951     2.7671    -2.8572 H       
  48 H48            3.6419     5.0351    -3.8448 H       
  49 H49            2.6333     5.0725    -2.3789 H       
  50 H50            3.5491     5.9217    -0.3135 H       
  51 H51            5.2285     6.5089    -0.2654 H       
  52 H52            3.4020     4.6612     1.9136 H       
  53 H53            2.6917     6.8977     2.6547 H       
  54 H54            0.4903     7.4031    -0.9730 H       
  55 H55            1.2091     5.1718    -1.7216 H       
  56 H56            4.3779     7.3320    -3.6531 H       
  57 H57            3.2078     7.4707    -2.3190 H       
  58 H58            6.6929     8.0693    -3.3547 H       
  59 H59            5.3007    10.1288     0.9000 H       
  60 H60            3.8026     8.5539    -0.2564 H       
  61 H61            5.8297    -2.7523    -0.6541 H       
  62 H62            5.4874    -4.0886    -1.7790 H       
  63 H63            5.6767    -2.4305    -2.3980 H       
@<TRIPOS>BOND
   1    1    2 ar
   2    1    6 ar
   3    1   41 1
   4    2    3 ar
   5    2   37 1
   6    3    4 ar
   7    3   34 1
   8    4    5 ar
   9    4   42 1
  10    5    7 1
  11    5    6 ar
  12    6   10 1
  13    7    8 1
  14    7   43 1
  15    8    9 1
  16    8   12 1
  17    8   11 1
  18    9   10 am
  19    9   16 1
  20   10   33 2
  21   11   15 1
  22   11   44 1
  23   11   45 1
  24   12   13 1
  25   12   46 1
  26   12   47 1
  27   13   14 1
  28   13   48 1
  29   13   49 1
  30   14   15 1
  31   14   24 1
  32   15   50 1
  33   15   51 1
  34   16   17 ar
  35   16   21 ar
  36   17   18 ar
  37   17   52 1
  38   18   19 ar
  39   18   53 1
  40   19   20 ar
  41   19   23 1
  42   20   21 ar
  43   20   54 1
  44   21   55 1
  45   22   23 1
  46   22   38 1
  47   22   39 1
  48   22   40 1
  49   24   25 1
  50   24   56 1
  51   24   57 1
  52   25   26 ar
  53   25   30 ar
  54   26   27 ar
  55   26   58 1
  56   27   28 ar
  57   27   32 1
  58   28   29 ar
  59   28   31 1
  60   29   30 ar
  61   29   59 1
  62   30   60 1
  63   34   35 1
  64   34   36 2
  65   35   61 1
  66   35   62 1
  67   35   63 1

#	End of record

