#	Name: ASD01840041
#	Creating user name:	WinNT
#	Creation time:	15. 06. 2019 19:37

#	Modifying user name:	WinNT
#	Modification time:	15. 06. 2019 19:37

#	Program:	/corina/corina34_cracker 3.40 0067  02.08.2006

@<TRIPOS>MOLECULE
ASD01840041
  33   35    0    0    0
SMALL
NO_CHARGES


@<TRIPOS>ATOM
   1 C1            -0.3135     1.7314    -0.3091 C.ar    
   2 C2            -0.4852     0.4480    -0.7798 C.ar    
   3 N3             0.5525    -0.3629    -0.8946 N.ar    
   4 N4             1.7432    -0.0094    -0.5827 N.ar    
   5 C5             2.0275     1.2089    -0.1165 C.ar    
   6 C6             0.9934     2.1416     0.0409 C.ar    
   7 S7             3.5595     1.9181     0.3737 S.3     
   8 C8             2.8092     3.4483     0.7832 C.2     
   9 C9             1.4695     3.4117     0.5560 C.2     
  10 C10           -1.4833     2.6722    -0.1771 C.3     
  11 N11            0.6328     4.4911     0.7957 N.pl3   
  12 C12            3.5076     4.5757     1.2848 C.2     
  13 C13            4.9436     4.4687     1.6135 C.ar    
  14 O14            2.9232     5.6326     1.4447 O.2     
  15 C15            5.8989     4.4504     0.5911 C.ar    
  16 C16            7.2402     4.3506     0.9062 C.ar    
  17 C17            7.6384     4.2684     2.2308 C.ar    
  18 C18            6.6947     4.2863     3.2473 C.ar    
  19 C19            5.3541     4.3913     2.9464 C.ar    
  20 C20           -1.8605    -0.0331    -1.1647 C.3     
  21 F21            8.9513     4.1701     2.5336 F       
  22 F22            5.5106     4.5296    -0.7005 F       
  23 H23           -1.8336     2.6738     0.8550 H       
  24 H24           -1.1732     3.6790    -0.4571 H       
  25 H25           -2.2891     2.3444    -0.8338 H       
  26 H26           -0.3171     4.4184     0.6131 H       
  27 H27            0.9974     5.3190     1.1458 H       
  28 H28            7.9795     4.3362     0.1191 H       
  29 H29            7.0118     4.2215     4.2777 H       
  30 H30            4.6215     4.4091     3.7398 H       
  31 H31           -2.0394     0.1828    -2.2180 H       
  32 H32           -1.9294    -1.1080    -0.9973 H       
  33 H33           -2.6074     0.4779    -0.5571 H       
@<TRIPOS>BOND
   1    1    2 ar
   2    1    6 ar
   3    1   10 1
   4    2    3 ar
   5    2   20 1
   6    3    4 ar
   7    4    5 ar
   8    5    7 1
   9    5    6 ar
  10    6    9 1
  11    7    8 1
  12    8    9 2
  13    8   12 1
  14    9   11 1
  15   10   23 1
  16   10   24 1
  17   10   25 1
  18   11   26 1
  19   11   27 1
  20   12   13 1
  21   12   14 2
  22   13   15 ar
  23   13   19 ar
  24   15   16 ar
  25   15   22 1
  26   16   17 ar
  27   16   28 1
  28   17   18 ar
  29   17   21 1
  30   18   19 ar
  31   18   29 1
  32   19   30 1
  33   20   31 1
  34   20   32 1
  35   20   33 1

#	End of record

