#	Name: ASD08150403
#	Creating user name:	WinNT
#	Creation time:	15. 06. 2019 21:15

#	Modifying user name:	WinNT
#	Modification time:	15. 06. 2019 21:15

#	Program:	/corina/corina34_cracker 3.40 0067  02.08.2006

@<TRIPOS>MOLECULE
ASD08150403
  48   53    0    0    0
SMALL
NO_CHARGES


@<TRIPOS>ATOM
   1 N1             0.8802     2.9070    -1.5770 N.am    
   2 C2             1.3088     2.2819    -2.6907 C.2     
   3 C3             2.5189     1.5587    -2.6944 C.2     
   4 C4             3.2725     1.4821    -1.5681 C.2     
   5 C5             2.8246     2.1386    -0.3944 C.ar    
   6 C6             3.5682     2.0912     0.8002 C.ar    
   7 N7             3.1529     2.6980     1.8813 N.ar    
   8 C8             2.0068     3.3945     1.9179 C.ar    
   9 C9             1.1943     3.4958     0.7617 C.ar    
  10 C10            1.6156     2.8505    -0.4246 C.ar    
  11 C11            0.0011     4.2231     0.8105 C.ar    
  12 C12           -0.3745     4.8389     1.9935 C.ar    
  13 C13            0.4347     4.7342     3.1336 C.ar    
  14 C14            1.5981     4.0308     3.1015 C.ar    
  15 O15            0.6410     2.3421    -3.7089 O.2     
  16 C16           -1.6383     5.6128     2.0539 C.ar    
  17 C17           -0.3221     3.6235    -1.6005 C.ar    
  18 C18           -2.7689     5.1769     1.3448 C.ar    
  19 C19           -0.3170     4.9820    -1.8889 C.ar    
  20 N20           -3.8970     5.8397     1.3796 N.ar    
  21 C21           -4.0292     6.9640     2.0915 C.ar    
  22 C22           -2.9326     7.4688     2.8349 C.ar    
  23 C23           -1.7135     6.7697     2.8160 C.ar    
  24 C24           -1.5049     5.6860    -1.9118 C.ar    
  25 C25           -2.6986     5.0398    -1.6474 C.ar    
  26 C26           -2.7070     3.6872    -1.3594 C.ar    
  27 C27           -1.5232     2.9762    -1.3411 C.ar    
  28 C28           -5.2490     7.6624     2.1162 C.ar    
  29 C29           -5.3597     8.8048     2.8477 C.ar    
  30 C30           -4.2804     9.2994     3.5773 C.ar    
  31 C31           -3.0831     8.6516     3.5786 C.ar    
  32 H32            2.8473     1.0636    -3.5964 H       
  33 H33            4.1999     0.9287    -1.5661 H       
  34 H34            4.4986     1.5432     0.8241 H       
  35 H35           -0.6227     4.3046    -0.0673 H       
  36 H36            0.1305     5.2193     4.0492 H       
  37 H37            2.2092     3.9603     3.9892 H       
  38 H38           -2.7063     4.2735     0.7563 H       
  39 H39            0.6150     5.4875    -2.0947 H       
  40 H40           -0.8588     7.1267     3.3714 H       
  41 H41           -1.5017     6.7425    -2.1360 H       
  42 H42           -3.6262     5.5926    -1.6656 H       
  43 H43           -3.6408     3.1856    -1.1527 H       
  44 H44           -1.5304     1.9199    -1.1161 H       
  45 H45           -6.0956     7.2938     1.5560 H       
  46 H46           -6.2994     9.3368     2.8626 H       
  47 H47           -4.3952    10.2086     4.1489 H       
  48 H48           -2.2538     9.0442     4.1482 H       
@<TRIPOS>BOND
   1    1    2 am
   2    1   10 1
   3    1   17 1
   4    2    3 1
   5    2   15 2
   6    3    4 2
   7    3   32 1
   8    4    5 1
   9    4   33 1
  10    5    6 ar
  11    5   10 ar
  12    6    7 ar
  13    6   34 1
  14    7    8 ar
  15    8    9 ar
  16    8   14 ar
  17    9   10 ar
  18    9   11 ar
  19   11   12 ar
  20   11   35 1
  21   12   13 ar
  22   12   16 1
  23   13   14 ar
  24   13   36 1
  25   14   37 1
  26   16   18 ar
  27   16   23 ar
  28   17   19 ar
  29   17   27 ar
  30   18   20 ar
  31   18   38 1
  32   19   24 ar
  33   19   39 1
  34   20   21 ar
  35   21   22 ar
  36   21   28 ar
  37   22   23 ar
  38   22   31 ar
  39   23   40 1
  40   24   25 ar
  41   24   41 1
  42   25   26 ar
  43   25   42 1
  44   26   27 ar
  45   26   43 1
  46   27   44 1
  47   28   29 ar
  48   28   45 1
  49   29   30 ar
  50   29   46 1
  51   30   31 ar
  52   30   47 1
  53   31   48 1

#	End of record

