#	Name: ASD03092631
#	Creating user name:	WinNT
#	Creation time:	15. 06. 2019 20:32

#	Modifying user name:	WinNT
#	Modification time:	15. 06. 2019 20:32

#	Program:	/corina/corina34_cracker 3.40 0067  02.08.2006

@<TRIPOS>MOLECULE
ASD03092631
  50   53    0    0    0
SMALL
NO_CHARGES


@<TRIPOS>ATOM
   1 C1            -0.4708     1.5937     0.3232 C.ar    
   2 C2            -0.3878     0.1902     0.2182 C.ar    
   3 C3             0.8863    -0.4194     0.1937 C.ar    
   4 C4             2.0047     0.4080     0.2756 C.ar    
   5 C5             1.8296     1.7796     0.3766 C.ar    
   6 N6             0.6324     2.3232     0.3978 N.ar    
   7 N7            -2.5319     0.7069     0.2290 N.2     
   8 N8            -1.8091     1.9017     0.3288 N.pl3   
   9 C9            -1.7092    -0.3013     0.1584 C.2     
  10 C10            1.0285    -1.8868     0.0854 C.2     
  11 O11            0.2215    -2.6173     0.6266 O.2     
  12 N12            2.0529    -2.4147    -0.6134 N.am    
  13 C13            2.9302    -4.4083    -1.6684 C.ar    
  14 C14            2.2571    -3.7982    -0.6175 C.ar    
  15 C15            1.7891    -4.5847     0.4322 C.ar    
  16 C16            2.0161    -5.9505     0.3833 C.ar    
  17 C17            2.6942    -6.4839    -0.6968 C.ar    
  18 N18            3.1252    -5.7117    -1.6752 N.ar    
  19 C19            3.4374    -3.5722    -2.8150 C.3     
  20 C20            3.0421     2.6702     0.4648 C.3     
  21 C21           -2.1034    -1.7511     0.0410 C.3     
  22 C22           -2.3565     3.1891     0.4189 C.ar    
  23 C23           -3.5253     3.4963    -0.2650 C.ar    
  24 C24           -4.0638     4.7645    -0.1759 C.ar    
  25 C25           -3.4373     5.7319     0.5964 C.ar    
  26 C26           -2.2695     5.4256     1.2800 C.ar    
  27 C27           -1.7332     4.1560     1.1966 C.ar    
  28 O28           -3.9676     6.9807     0.6830 O.3     
  29 C29           -3.2702     7.9268     1.4958 C.3     
  30 H30            2.9982    -0.0152     0.2608 H       
  31 H31            2.6485    -1.8351    -1.1136 H       
  32 H32            1.2624    -4.1408     1.2641 H       
  33 H33            1.6677    -6.5910     1.1800 H       
  34 H34            2.8738    -7.5480    -0.7398 H       
  35 H35            4.4514    -3.2358    -2.5986 H       
  36 H36            3.4395    -4.1692    -3.7270 H       
  37 H37            2.7883    -2.7068    -2.9487 H       
  38 H38            3.3519     2.9626    -0.5385 H       
  39 H39            2.7974     3.5608     1.0435 H       
  40 H40            3.8540     2.1312     0.9531 H       
  41 H41           -2.1210    -2.2042     1.0322 H       
  42 H42           -3.0936    -1.8230    -0.4090 H       
  43 H43           -1.3809    -2.2745    -0.5851 H       
  44 H44           -4.0127     2.7436    -0.8667 H       
  45 H45           -4.9729     5.0036    -0.7077 H       
  46 H46           -1.7822     6.1791     1.8810 H       
  47 H47           -0.8266     3.9164     1.7324 H       
  48 H48           -3.7984     8.8801     1.4781 H       
  49 H49           -3.2199     7.5582     2.5204 H       
  50 H50           -2.2604     8.0636     1.1089 H       
@<TRIPOS>BOND
   1    1    2 ar
   2    1    6 ar
   3    1    8 1
   4    2    3 ar
   5    2    9 1
   6    3    4 ar
   7    3   10 1
   8    4    5 ar
   9    4   30 1
  10    5    6 ar
  11    5   20 1
  12    7    8 1
  13    7    9 2
  14    8   22 1
  15    9   21 1
  16   10   11 2
  17   10   12 am
  18   12   14 1
  19   12   31 1
  20   13   14 ar
  21   13   18 ar
  22   13   19 1
  23   14   15 ar
  24   15   16 ar
  25   15   32 1
  26   16   17 ar
  27   16   33 1
  28   17   18 ar
  29   17   34 1
  30   19   35 1
  31   19   36 1
  32   19   37 1
  33   20   38 1
  34   20   39 1
  35   20   40 1
  36   21   41 1
  37   21   42 1
  38   21   43 1
  39   22   23 ar
  40   22   27 ar
  41   23   24 ar
  42   23   44 1
  43   24   25 ar
  44   24   45 1
  45   25   26 ar
  46   25   28 1
  47   26   27 ar
  48   26   46 1
  49   27   47 1
  50   28   29 1
  51   29   48 1
  52   29   49 1
  53   29   50 1

#	End of record

