#	Name: ASD04910165
#	Creating user name:	WinNT
#	Creation time:	15. 06. 2019 20:55

#	Modifying user name:	WinNT
#	Modification time:	15. 06. 2019 20:55

#	Program:	/corina/corina34_cracker 3.40 0067  02.08.2006

@<TRIPOS>MOLECULE
ASD04910165
  22   22    0    0    0
SMALL
NO_CHARGES


@<TRIPOS>ATOM
   1 C1            -0.0167     1.3792     0.0096 C.ar    
   2 C2             0.0021    -0.0041     0.0020 C.ar    
   3 C3             1.2083    -0.6813    -0.0127 C.ar    
   4 C4             2.3968     0.0227    -0.0199 C.ar    
   5 C5             2.3802     1.4099    -0.0127 C.ar    
   6 C6             1.1696     2.0871     0.0021 C.ar    
   7 C7             1.2257    -2.1882    -0.0205 C.3     
   8 C8            -1.3322     2.1144     0.0199 C.3     
   9 O9             3.5484     2.1045    -0.0193 O.3     
  10 C10            3.4555     3.5304    -0.0113 C.3     
  11 Br11          -1.6233    -0.9705     0.0124 Br      
  12 H12            3.3383    -0.5064    -0.0307 H       
  13 H13            1.1545     3.1670     0.0077 H       
  14 H14            1.2203    -2.5463    -1.0500 H       
  15 H15            2.1247    -2.5438     0.4831 H       
  16 H16            0.3449    -2.5644     0.4998 H       
  17 H17           -1.6445     2.2860     1.0500 H       
  18 H18           -1.2176     3.0713    -0.4893 H       
  19 H19           -2.0859     1.5175    -0.4937 H       
  20 H20            4.4573     3.9599    -0.0178 H       
  21 H21            2.9114     3.8640    -0.8949 H       
  22 H22            2.9268     3.8550     0.8849 H       
@<TRIPOS>BOND
   1    1    2 ar
   2    1    6 ar
   3    1    8 1
   4    2    3 ar
   5    2   11 1
   6    3    4 ar
   7    3    7 1
   8    4    5 ar
   9    4   12 1
  10    5    6 ar
  11    5    9 1
  12    6   13 1
  13    7   14 1
  14    7   15 1
  15    7   16 1
  16    8   17 1
  17    8   18 1
  18    8   19 1
  19    9   10 1
  20   10   20 1
  21   10   21 1
  22   10   22 1

#	End of record

