#	Name: ASD02508227
#	Creating user name:	WinNT
#	Creation time:	15. 06. 2019 20:24

#	Modifying user name:	WinNT
#	Modification time:	15. 06. 2019 20:24

#	Program:	/corina/corina34_cracker 3.40 0067  02.08.2006

@<TRIPOS>MOLECULE
ASD02508227
  36   39    0    0    0
SMALL
NO_CHARGES


@<TRIPOS>ATOM
   1 C1             0.2485     0.6123    -0.3443 C.ar    
   2 C2             0.0012    -0.7455    -0.5453 C.ar    
   3 C3            -1.2921    -1.2321    -0.4366 C.ar    
   4 C4            -2.3283    -0.3718    -0.1302 C.ar    
   5 C5            -2.0820     0.9756     0.0687 C.ar    
   6 C6            -0.7958     1.4688    -0.0321 C.ar    
   7 S7            -3.9716    -0.9925     0.0076 S.o2    
   8 N8            -4.2470    -1.2990     1.6115 N.am    
   9 C9            -3.4658    -2.2425     2.2877 C.ar    
  10 N10            1.6198     0.7976    -0.5175 N.am    
  11 C11            2.1573    -0.4035    -0.8089 C.2     
  12 O12            1.1897    -1.3337    -0.8268 O.3     
  13 O13           -4.8359     0.0770    -0.3508 O.2     
  14 O14           -3.9809    -2.2527    -0.6491 O.2     
  15 C15            2.3438     2.0661    -0.4037 C.3     
  16 O16            3.3360    -0.6122    -1.0224 O.2     
  17 C17           -2.9426    -1.9428     3.5385 C.ar    
  18 C18           -3.2184    -3.4807     1.7107 C.ar    
  19 C19           -2.4467    -4.4138     2.3776 C.ar    
  20 C20           -1.9183    -4.1164     3.6228 C.ar    
  21 C21           -2.1696    -2.8770     4.2071 C.ar    
  22 O22           -1.1385    -4.8488     4.4727 O.3     
  23 C23           -0.5736    -3.8962     5.3928 C.3     
  24 O24           -1.5442    -2.8313     5.4196 O.3     
  25 H25           -1.4893    -2.2826    -0.5916 H       
  26 H26           -2.8973     1.6425     0.3073 H       
  27 H27           -0.6053     2.5203     0.1238 H       
  28 H28           -4.9499    -0.8243     2.0822 H       
  29 H29            2.6736     2.2051     0.6259 H       
  30 H30            3.2109     2.0501    -1.0640 H       
  31 H31            1.6855     2.8870    -0.6883 H       
  32 H32           -3.1383    -0.9812     3.9895 H       
  33 H33           -3.6296    -3.7153     0.7400 H       
  34 H34           -2.2558    -5.3765     1.9270 H       
  35 H35           -0.4654    -4.3381     6.3832 H       
  36 H36            0.3871    -3.5337     5.0270 H       
@<TRIPOS>BOND
   1    1    2 ar
   2    1   10 1
   3    1    6 ar
   4    2    3 ar
   5    2   12 1
   6    3    4 ar
   7    3   25 1
   8    4    5 ar
   9    4    7 1
  10    5    6 ar
  11    5   26 1
  12    6   27 1
  13    7    8 am
  14    7   13 2
  15    7   14 2
  16    8    9 1
  17    8   28 1
  18    9   17 ar
  19    9   18 ar
  20   10   11 am
  21   10   15 1
  22   11   12 1
  23   11   16 2
  24   15   29 1
  25   15   30 1
  26   15   31 1
  27   17   21 ar
  28   17   32 1
  29   18   19 ar
  30   18   33 1
  31   19   20 ar
  32   19   34 1
  33   20   21 ar
  34   20   22 1
  35   21   24 1
  36   22   23 1
  37   23   24 1
  38   23   35 1
  39   23   36 1

#	End of record

