#	Name: ASD02810002
#	Creating user name:	WinNT
#	Creation time:	15. 06. 2019 20:26

#	Modifying user name:	WinNT
#	Modification time:	15. 06. 2019 20:26

#	Program:	/corina/corina34_cracker 3.40 0067  02.08.2006

@<TRIPOS>MOLECULE
ASD02810002
  80   83    0    0    0
SMALL
NO_CHARGES


@<TRIPOS>ATOM
   1 C1             0.6615     0.6353     1.8454 C.ar    
   2 C2            -0.1729     0.7602     0.7412 C.ar    
   3 C3            -1.3409     0.0335     0.6726 C.ar    
   4 C4            -1.6863    -0.8301     1.7151 C.ar    
   5 C5            -0.8444    -0.9529     2.8238 C.ar    
   6 C6             0.3243    -0.2273     2.8821 C.ar    
   7 C7             1.2329    -0.3589     4.0772 C.3     
   8 C8             2.3727    -1.2860     3.7420 C.2     
   9 C9             2.6191    -2.3230     4.5035 C.2     
  10 C10            1.8517    -2.5153     5.7862 C.3     
  11 C11            3.6701    -3.3236     4.0970 C.3     
  12 O12            1.8116     1.3531     1.9093 O.3     
  13 C13           -2.9372    -1.6104     1.6459 C.2     
  14 N14           -3.7480    -1.4903     0.5760 N.am    
  15 O15           -3.2363    -2.3618     2.5543 O.2     
  16 C16           -4.9904    -2.1522     0.5565 C.2     
  17 C17           -6.1441    -1.4417     0.4177 C.2     
  18 O18           -7.3505    -2.0244     0.3938 O.3     
  19 C19           -7.5091    -3.3597     0.5053 C.ar    
  20 C20           -6.3837    -4.1875     0.6525 C.ar    
  21 C21           -5.0492    -3.5608     0.6751 C.2     
  22 C22           -8.7736    -3.9308     0.4771 C.ar    
  23 C23           -8.9101    -5.3038     0.5939 C.ar    
  24 C24           -7.7886    -6.1170     0.7399 C.ar    
  25 C25           -6.5376    -5.5693     0.7694 C.ar    
  26 O26          -10.1474    -5.8621     0.5663 O.3     
  27 C27          -10.2207    -7.2837     0.6915 C.3     
  28 C28          -11.6879    -7.7149     0.7643 C.3     
  29 C29          -11.7597    -9.2432     0.8377 C.3     
  30 C30          -11.0391    -9.8362    -0.3770 C.3     
  31 C31           -9.5970    -9.3231    -0.4056 C.3     
  32 O32           -9.6017    -7.8945    -0.4425 O.3     
  33 C33           -8.8612    -9.7987     0.8486 C.3     
  34 C34           -8.8879    -9.8632    -1.6492 C.3     
  35 O35           -6.0692    -0.0977     0.3001 O.3     
  36 O36          -12.2939    -7.1518     1.9295 O.3     
  37 O37          -11.1163    -9.7018     2.0559 O.3     
  38 O38          -11.7117    -9.4373    -1.5730 O.3     
  39 C39          -11.8917    -9.8177     3.1504 C.2     
  40 N40          -11.3568   -10.2382     4.3138 N.am    
  41 O41          -13.0738    -9.5431     3.0893 O.2     
  42 C42          -12.7407   -10.3375    -1.9890 C.3     
  43 O43           -4.0357    -4.2300     0.8004 O.2     
  44 C44           -9.9935    -3.0601     0.3206 C.3     
  45 H45            0.0946     1.4283    -0.0641 H       
  46 H46           -1.9890     0.1315    -0.1857 H       
  47 H47           -1.1079    -1.6195     3.6317 H       
  48 H48            1.6281     0.6216     4.3428 H       
  49 H49            0.6704    -0.7639     4.9184 H       
  50 H50            2.9863    -1.0955     2.8739 H       
  51 H51            0.9107    -3.0228     5.5739 H       
  52 H52            2.4422    -3.1184     6.4759 H       
  53 H53            1.6472    -1.5439     6.2364 H       
  54 H54            4.6350    -3.0235     4.5058 H       
  55 H55            3.4028    -4.3078     4.4816 H       
  56 H56            3.7328    -3.3632     3.0095 H       
  57 H57            1.7122     2.2185     2.3291 H       
  58 H58           -3.4756    -0.9477    -0.1805 H       
  59 H59           -7.9089    -7.1864     0.8307 H       
  60 H60           -5.6708    -6.2035     0.8831 H       
  61 H61           -9.7047    -7.5957     1.5995 H       
  62 H62          -12.2140    -7.3678    -0.1250 H       
  63 H63          -12.8027    -9.5598     0.8333 H       
  64 H64          -11.0374   -10.9238    -0.3044 H       
  65 H65           -9.0019   -10.8731     0.9670 H       
  66 H66           -7.7978    -9.5802     0.7509 H       
  67 H67           -9.2596    -9.2817     1.7216 H       
  68 H68           -9.4120    -9.5237    -2.5425 H       
  69 H69           -7.8612    -9.4978    -1.6694 H       
  70 H70           -8.8853   -10.9528    -1.6214 H       
  71 H71           -6.9277     0.3372     0.2053 H       
  72 H72          -12.2796    -6.1851     1.9521 H       
  73 H73          -10.4131   -10.4574     4.3625 H       
  74 H74          -11.9154   -10.3217     5.1023 H       
  75 H75          -13.4951   -10.4138    -1.2059 H       
  76 H76          -13.2024    -9.9641    -2.9031 H       
  77 H77          -12.3095   -11.3211    -2.1752 H       
  78 H78          -10.2229    -2.9431    -0.7386 H       
  79 H79          -10.8395    -3.5255     0.8263 H       
  80 H80           -9.8005    -2.0818     0.7607 H       
@<TRIPOS>BOND
   1    1    2 ar
   2    1   12 1
   3    1    6 ar
   4    2    3 ar
   5    2   45 1
   6    3    4 ar
   7    3   46 1
   8    4    5 ar
   9    4   13 1
  10    5    6 ar
  11    5   47 1
  12    6    7 1
  13    7    8 1
  14    7   48 1
  15    7   49 1
  16    8    9 2
  17    8   50 1
  18    9   10 1
  19    9   11 1
  20   10   51 1
  21   10   52 1
  22   10   53 1
  23   11   54 1
  24   11   55 1
  25   11   56 1
  26   12   57 1
  27   13   14 am
  28   13   15 2
  29   14   16 1
  30   14   58 1
  31   16   17 2
  32   16   21 1
  33   17   18 1
  34   17   35 1
  35   18   19 1
  36   19   20 ar
  37   19   22 ar
  38   20   21 1
  39   20   25 ar
  40   21   43 2
  41   22   23 ar
  42   22   44 1
  43   23   24 ar
  44   23   26 1
  45   24   25 ar
  46   24   59 1
  47   25   60 1
  48   26   27 1
  49   27   28 1
  50   27   32 1
  51   27   61 1
  52   28   29 1
  53   28   36 1
  54   28   62 1
  55   29   30 1
  56   29   37 1
  57   29   63 1
  58   30   31 1
  59   30   38 1
  60   30   64 1
  61   31   32 1
  62   31   33 1
  63   31   34 1
  64   33   65 1
  65   33   66 1
  66   33   67 1
  67   34   68 1
  68   34   69 1
  69   34   70 1
  70   35   71 1
  71   36   72 1
  72   37   39 1
  73   38   42 1
  74   39   40 am
  75   39   41 2
  76   40   73 1
  77   40   74 1
  78   42   75 1
  79   42   76 1
  80   42   77 1
  81   44   78 1
  82   44   79 1
  83   44   80 1

#	End of record

