#	Name: ASD00960204
#	Creating user name:	WinNT
#	Creation time:	15. 06. 2019 18:53

#	Modifying user name:	WinNT
#	Modification time:	15. 06. 2019 18:53

#	Program:	/corina/corina34_cracker 3.40 0067  02.08.2006

@<TRIPOS>MOLECULE
ASD00960204
  37   40    0    0    0
SMALL
NO_CHARGES


@<TRIPOS>ATOM
   1 C1            -0.0170     1.4004     0.0097 C.2     
   2 C2             0.0021    -0.0041     0.0020 C.2     
   3 N3             1.2749     1.8414    -0.0002 N.pl3   
   4 C4             2.1126     0.7546    -0.0140 C.2     
   5 C5             1.3414    -0.3976    -0.0129 C.2     
   6 N6             1.8426     3.1237     0.0012 N.2     
   7 C7             3.1419     3.2648    -0.0104 C.2     
   8 N8             3.9663     2.2220    -0.0243 N.2     
   9 C9             3.5120     0.9810    -0.0258 C.2     
  10 N10            4.3905    -0.0832    -0.0395 N.pl3   
  11 C11           -1.1754    -0.8979     0.0092 C.2     
  12 N12           -1.1663    -2.2527     0.0018 N.pl3   
  13 N13           -2.3971    -2.6387     0.0130 N.2     
  14 N14           -3.1623    -1.6042     0.0268 N.2     
  15 N15           -2.4447    -0.5343     0.0298 N.2     
  16 C16           -1.1744     2.2166     0.0199 C.2     
  17 O17           -2.2790     1.7059     0.0226 O.2     
  18 O18           -1.0523     3.5608     0.0266 O.3     
  19 C19           -2.2616     4.3220     0.0367 C.3     
  20 C20           -1.9298     5.7920     0.0431 C.ar    
  21 C21           -1.7836     6.4727    -1.1512 C.ar    
  22 C22           -1.4792     7.8211    -1.1453 C.ar    
  23 C23           -1.3215     8.4889     0.0547 C.ar    
  24 C24           -1.4687     7.8084     1.2489 C.ar    
  25 C25           -1.7773     6.4610     1.2431 C.ar    
  26 H26            1.7092    -1.4130    -0.0218 H       
  27 H27            3.5594     4.2609    -0.0090 H       
  28 H28            5.3470     0.0776    -0.0481 H       
  29 H29            4.0514    -0.9920    -0.0405 H       
  30 H30           -0.3826    -2.8242    -0.0102 H       
  31 H31           -2.8472     4.0855    -0.8517 H       
  32 H32           -2.8384     4.0759     0.9282 H       
  33 H33           -1.9068     5.9510    -2.0887 H       
  34 H34           -1.3642     8.3528    -2.0783 H       
  35 H35           -1.0830     9.5423     0.0592 H       
  36 H36           -1.3451     8.3301     2.1865 H       
  37 H37           -1.8960     5.9301     2.1761 H       
@<TRIPOS>BOND
   1    1    2 2
   2    1    3 1
   3    1   16 1
   4    2   11 1
   5    2    5 1
   6    3    4 1
   7    3    6 1
   8    4    5 2
   9    4    9 1
  10    5   26 1
  11    6    7 2
  12    7    8 1
  13    7   27 1
  14    8    9 2
  15    9   10 1
  16   10   28 1
  17   10   29 1
  18   11   12 1
  19   11   15 2
  20   12   13 1
  21   12   30 1
  22   13   14 2
  23   14   15 1
  24   16   17 2
  25   16   18 1
  26   18   19 1
  27   19   20 1
  28   19   31 1
  29   19   32 1
  30   20   21 ar
  31   20   25 ar
  32   21   22 ar
  33   21   33 1
  34   22   23 ar
  35   22   34 1
  36   23   24 ar
  37   23   35 1
  38   24   25 ar
  39   24   36 1
  40   25   37 1

#	End of record

