#	Name: ASD01884729
#	Creating user name:	WinNT
#	Creation time:	15. 06. 2019 19:48

#	Modifying user name:	WinNT
#	Modification time:	15. 06. 2019 19:48

#	Program:	/corina/corina34_cracker 3.40 0067  02.08.2006

@<TRIPOS>MOLECULE
ASD01884729
  50   52    0    0    0
SMALL
NO_CHARGES


@<TRIPOS>ATOM
   1 C1            -0.0168     1.3860     0.0097 C.2     
   2 C2             0.0021    -0.0041     0.0020 C.2     
   3 C3            -1.2208    -0.6983     0.0099 C.2     
   4 C4            -2.4063     0.0048     0.0250 C.2     
   5 N5            -2.4137     1.3530     0.0323 N.am    
   6 C6            -1.2673     2.0576     0.0311 C.2     
   7 O7            -1.3028     3.2760     0.0385 O.2     
   8 C8            -3.6943     2.0643     0.0478 C.3     
   9 C9             1.2072     2.1293     0.0020 C.1     
  10 N10            2.1781     2.7190    -0.0041 N.1     
  11 C11           -4.1269     2.3042     1.4956 C.3     
  12 C12           -5.4643     3.0471     1.5118 C.3     
  13 C13           -6.5506     2.1552     0.9073 C.3     
  14 C14           -5.8360     3.3970     2.9542 C.3     
  15 C15           -1.2350    -2.1822     0.0016 C.2     
  16 C16           -0.0776    -2.8668    -0.0135 C.2     
  17 C17           -0.1252    -4.3673    -0.0478 C.3     
  18 C18           -1.2917    -4.8648     0.8059 C.3     
  19 C19           -2.5608    -4.1876     0.3767 C.2     
  20 C20           -2.5204    -2.9100     0.0160 C.2     
  21 O21            1.0812    -4.9564     0.4313 O.3     
  22 C22            1.0610    -6.3883     0.3625 C.3     
  23 C23           -0.1231    -6.9356     1.1605 C.3     
  24 N24           -1.3771    -6.3232     0.6883 N.3     
  25 C25           -2.5308    -6.8448     1.4332 C.3     
  26 H26            0.9390    -0.5411    -0.0101 H       
  27 H27           -3.3432    -0.5323     0.0306 H       
  28 H28           -3.5844     3.0215    -0.4619 H       
  29 H29           -4.4487     1.4655    -0.4624 H       
  30 H30           -4.2368     1.3470     2.0053 H       
  31 H31           -3.3724     2.9030     2.0058 H       
  32 H32           -5.3785     3.9626     0.9265 H       
  33 H33           -7.5034     2.6845     0.9188 H       
  34 H34           -6.2858     1.9060    -0.1203 H       
  35 H35           -6.6364     1.2397     1.4926 H       
  36 H36           -5.0621     4.0324     3.3848 H       
  37 H37           -6.7888     3.9262     2.9657 H       
  38 H38           -5.9218     2.4815     3.5395 H       
  39 H39            0.8689    -2.3469    -0.0016 H       
  40 H40           -0.2785    -4.6918    -1.0770 H       
  41 H41           -1.0954    -4.6171     1.8491 H       
  42 H42           -3.4942    -4.7309     0.3657 H       
  43 H43           -3.4282    -2.4032    -0.2763 H       
  44 H44            0.9699    -6.6989    -0.6784 H       
  45 H45            1.9890    -6.7832     0.7758 H       
  46 H46           -0.1775    -8.0165     1.0313 H       
  47 H47            0.0160    -6.7061     2.2170 H       
  48 H48           -2.4449    -6.5604     2.4820 H       
  49 H49           -3.4491    -6.4294     1.0182 H       
  50 H50           -2.5544    -7.9315     1.3522 H       
@<TRIPOS>BOND
   1    1    2 2
   2    1    9 1
   3    1    6 1
   4    2    3 1
   5    2   26 1
   6    3    4 2
   7    3   15 1
   8    4    5 1
   9    4   27 1
  10    5    8 1
  11    5    6 am
  12    6    7 2
  13    8   11 1
  14    8   28 1
  15    8   29 1
  16    9   10 3
  17   11   12 1
  18   11   30 1
  19   11   31 1
  20   12   13 1
  21   12   14 1
  22   12   32 1
  23   13   33 1
  24   13   34 1
  25   13   35 1
  26   14   36 1
  27   14   37 1
  28   14   38 1
  29   15   16 2
  30   15   20 1
  31   16   17 1
  32   16   39 1
  33   17   18 1
  34   17   21 1
  35   17   40 1
  36   18   19 1
  37   18   24 1
  38   18   41 1
  39   19   20 2
  40   19   42 1
  41   20   43 1
  42   21   22 1
  43   22   23 1
  44   22   44 1
  45   22   45 1
  46   23   24 1
  47   23   46 1
  48   23   47 1
  49   24   25 1
  50   25   48 1
  51   25   49 1
  52   25   50 1

#	End of record

