#	Name: ASD01410765
#	Creating user name:	WinNT
#	Creation time:	15. 06. 2019 19:18

#	Modifying user name:	WinNT
#	Modification time:	15. 06. 2019 19:18

#	Program:	/corina/corina34_cracker 3.40 0067  02.08.2006

@<TRIPOS>MOLECULE
ASD01410765
 106  112    0    0    0
SMALL
NO_CHARGES


@<TRIPOS>ATOM
   1 C1             2.2929     1.4292    -0.4788 C.3     
   2 C2             1.6816    -2.2196    -1.5011 C.3     
   3 C3             1.5808    -0.6816    -1.6118 C.3     
   4 N4             2.6166    -0.3361    -2.5999 N.am    
   5 C5             2.5751    -1.3883    -3.6277 C.3     
   6 C6             1.9912    -2.6473    -2.9561 C.3     
   7 O7             2.7462    -2.5956    -0.6253 O.3     
   8 C8             1.6918    -0.9575    -4.7702 C.2     
   9 O9             1.1441     0.1242    -4.7388 O.2     
  10 N10            1.5104    -1.7742    -5.8268 N.am    
  11 C11            0.5815    -1.3955    -6.8945 C.3     
  12 C12           -0.8708    -1.3259    -6.4981 C.2     
  13 N13           -1.2510    -1.7069    -5.2625 N.am    
  14 O14           -1.6973    -0.9270    -7.2909 O.2     
  15 S15           -2.8253    -1.5165    -4.7851 S.o2    
  16 C16           -3.7647    -2.6254    -5.8706 C.3     
  17 C17            1.0772    -0.3944    -7.9400 C.3     
  18 C18            0.9047    -1.8689    -8.3130 C.3     
  19 C19           -5.2905    -2.5960    -5.7607 C.3     
  20 C20           -4.5996    -1.9859    -6.9819 C.3     
  21 O21           -2.8457    -1.9936    -3.4467 O.2     
  22 O22           -3.1202    -0.1589    -5.0834 O.2     
  23 C23            0.0756     0.5854    -8.4949 C.2     
  24 C24            0.2689     1.8729    -8.3494 C.2     
  25 C25            2.6687    -3.8227    -0.0534 C.ar    
  26 C26            3.6506    -4.2603     0.8653 C.ar    
  27 C27            1.6254    -4.6786    -0.3471 C.ar    
  28 C28            1.5724    -5.9391     0.2590 C.ar    
  29 N29            2.4996    -6.3356     1.1110 N.ar    
  30 C30            3.5302    -5.5503     1.4388 C.ar    
  31 C31            0.4474    -6.8510    -0.0633 C.ar    
  32 C32            4.5092    -5.9890     2.3478 C.ar    
  33 C33            5.5607    -5.1597     2.6676 C.ar    
  34 C34            5.6659    -3.8870     2.0989 C.ar    
  35 C35            4.7342    -3.4404     1.2131 C.ar    
  36 Cl36           4.3923    -7.5665     3.0629 Cl      
  37 O37            6.5067    -5.5830     3.5462 O.3     
  38 N38           -0.4900    -6.4627    -0.9178 N.ar    
  39 C39            1.8910    -0.0308    -0.2714 C.3     
  40 C40            3.5962     1.5041    -1.2747 C.3     
  41 C41            3.4585     0.7063    -2.5468 C.2     
  42 C42            3.8997     2.9637    -1.6190 C.3     
  43 C43            2.7562     3.5382    -2.4576 C.3     
  44 C44            4.0424     3.7731    -0.3285 C.3     
  45 O45            4.1108     1.0078    -3.5237 O.2     
  46 C46            7.5730    -4.6774     3.8378 C.3     
  47 C47            8.5322    -5.3244     4.8389 C.3     
  48 O48            9.1552    -6.4603     4.2358 O.3     
  49 C49           10.0756    -7.1409     5.0912 C.3     
  50 C50           -1.5048    -7.2417    -1.2307 C.ar    
  51 C51           -1.6301    -8.5023    -0.6752 C.ar    
  52 C52           -0.6715    -8.9481     0.2233 C.ar    
  53 C53            0.3873    -8.1102     0.5295 C.ar    
  54 C54           -2.5437    -6.7529    -2.2068 C.3     
  55 C55           -2.1973    -7.2499    -3.6118 C.3     
  56 C56           -3.9177    -7.2894    -1.8004 C.3     
  57 H57            1.5049     1.9473    -1.0254 H       
  58 H58            2.4330     1.9072     0.4907 H       
  59 H59            0.7367    -2.6452    -1.1631 H       
  60 H60            0.5952    -0.3883    -1.9731 H       
  61 H61            3.5819    -1.5933    -3.9917 H       
  62 H62            2.7226    -3.4554    -2.9657 H       
  63 H63            1.0769    -2.9571    -3.4624 H       
  64 H64            1.9950    -2.6128    -5.8804 H       
  65 H65           -0.6026    -2.0927    -4.6529 H       
  66 H66           -3.2939    -3.5851    -6.0834 H       
  67 H67            2.0944    -0.0176    -7.8334 H       
  68 H68            1.8086    -2.4619    -8.4521 H       
  69 H69            0.0670    -2.1298    -8.9597 H       
  70 H70           -5.8234    -3.5364    -5.9014 H       
  71 H71           -5.7298    -1.9104    -5.0360 H       
  72 H72           -4.5844    -0.8988    -7.0606 H       
  73 H73           -4.6781    -2.5248    -7.9260 H       
  74 H74           -0.8015     0.2261    -9.0126 H       
  75 H75            1.1460     2.2321    -7.8318 H       
  76 H76           -0.4489     2.5750    -8.7471 H       
  77 H77            0.8543    -4.3768    -1.0405 H       
  78 H78            6.4986    -3.2519     2.3630 H       
  79 H79            4.8273    -2.4550     0.7811 H       
  80 H80            2.7093    -0.5663     0.2099 H       
  81 H81            1.0075    -0.0757     0.3654 H       
  82 H82            4.4108     1.0958    -0.6765 H       
  83 H83            4.8289     3.0175    -2.1863 H       
  84 H84            1.8270     3.4844    -1.8904 H       
  85 H85            2.9724     4.5780    -2.7029 H       
  86 H86            2.6545     2.9616    -3.3770 H       
  87 H87            4.8930     3.4002     0.2420 H       
  88 H88            4.2016     4.8231    -0.5740 H       
  89 H89            3.1341     3.6726     0.2657 H       
  90 H90            8.1108    -4.4417     2.9195 H       
  91 H91            7.1651    -3.7615     4.2653 H       
  92 H92            9.2957    -4.6026     5.1290 H       
  93 H93            7.9769    -5.6407     5.7219 H       
  94 H94           10.5053    -7.9902     4.5600 H       
  95 H95           10.8711    -6.4568     5.3866 H       
  96 H96            9.5523    -7.4949     5.9794 H       
  97 H97           -2.4662    -9.1333    -0.9382 H       
  98 H98           -0.7474    -9.9281     0.6707 H       
  99 H99            1.1516    -8.4252     1.2246 H       
 100 H100          -2.5630    -5.6631    -2.2015 H       
 101 H101          -2.1779    -8.3397    -3.6172 H       
 102 H102          -2.9487    -6.8964    -4.3178 H       
 103 H103          -1.2184    -6.8677    -3.9013 H       
 104 H104          -4.6691    -6.9359    -2.5064 H       
 105 H105          -3.8983    -8.3792    -1.8058 H       
 106 H106          -4.1645    -6.9353    -0.7995 H       
@<TRIPOS>BOND
   1    1   39 1
   2    1   40 1
   3    1   57 1
   4    1   58 1
   5    2    3 1
   6    2    7 1
   7    2    6 1
   8    2   59 1
   9    3    4 1
  10    3   39 1
  11    3   60 1
  12    4    5 1
  13    4   41 am
  14    5    6 1
  15    5    8 1
  16    5   61 1
  17    6   62 1
  18    6   63 1
  19    7   25 1
  20    8    9 2
  21    8   10 am
  22   10   11 1
  23   10   64 1
  24   11   12 1
  25   11   17 1
  26   11   18 1
  27   12   13 am
  28   12   14 2
  29   13   15 am
  30   13   65 1
  31   15   16 1
  32   15   21 2
  33   15   22 2
  34   16   19 1
  35   16   20 1
  36   16   66 1
  37   17   18 1
  38   17   23 1
  39   17   67 1
  40   18   68 1
  41   18   69 1
  42   19   20 1
  43   19   70 1
  44   19   71 1
  45   20   72 1
  46   20   73 1
  47   23   24 2
  48   23   74 1
  49   24   75 1
  50   24   76 1
  51   25   26 ar
  52   25   27 ar
  53   26   30 ar
  54   26   35 ar
  55   27   28 ar
  56   27   77 1
  57   28   29 ar
  58   28   31 1
  59   29   30 ar
  60   30   32 ar
  61   31   38 ar
  62   31   53 ar
  63   32   33 ar
  64   32   36 1
  65   33   34 ar
  66   33   37 1
  67   34   35 ar
  68   34   78 1
  69   35   79 1
  70   37   46 1
  71   38   50 ar
  72   39   80 1
  73   39   81 1
  74   40   41 1
  75   40   42 1
  76   40   82 1
  77   41   45 2
  78   42   43 1
  79   42   44 1
  80   42   83 1
  81   43   84 1
  82   43   85 1
  83   43   86 1
  84   44   87 1
  85   44   88 1
  86   44   89 1
  87   46   47 1
  88   46   90 1
  89   46   91 1
  90   47   48 1
  91   47   92 1
  92   47   93 1
  93   48   49 1
  94   49   94 1
  95   49   95 1
  96   49   96 1
  97   50   51 ar
  98   50   54 1
  99   51   52 ar
 100   51   97 1
 101   52   53 ar
 102   52   98 1
 103   53   99 1
 104   54   55 1
 105   54   56 1
 106   54  100 1
 107   55  101 1
 108   55  102 1
 109   55  103 1
 110   56  104 1
 111   56  105 1
 112   56  106 1

#	End of record

