#	Name: ASD01811258
#	Creating user name:	WinNT
#	Creation time:	15. 06. 2019 19:26

#	Modifying user name:	WinNT
#	Modification time:	15. 06. 2019 19:26

#	Program:	/corina/corina34_cracker 3.40 0067  02.08.2006

@<TRIPOS>MOLECULE
ASD01811258
  39   41    0    0    0
SMALL
NO_CHARGES


@<TRIPOS>ATOM
   1 C1            -0.1194     1.4620     0.2144 C.2     
   2 C2            -0.0476    -0.0094     0.1019 C.ar    
   3 C3             1.1205    -0.6202    -0.3620 C.ar    
   4 C4             1.1887    -1.9948    -0.4676 C.ar    
   5 C5             0.1046    -2.7754    -0.1166 C.ar    
   6 C6            -1.0687    -2.1781     0.3480 C.ar    
   7 C7            -1.1427    -0.7919     0.4635 C.ar    
   8 O8             0.8646     2.1372    -0.0125 O.2     
   9 O9            -1.2774     2.0551     0.5633 O.3     
  10 C10           -2.2289    -3.0160     0.7225 C.2     
  11 N11           -2.2357    -4.3277     0.8062 N.2     
  12 C12           -3.4550    -4.7402     1.1712 C.2     
  13 C13           -4.2430    -3.6564     1.3228 C.2     
  14 N14           -3.4729    -2.5591     1.0458 N.pl3   
  15 O15           -6.3633    -4.8239     1.2080 O.3     
  16 C16           -5.6949    -3.6534     1.7265 C.3     
  17 C17           -5.8266    -3.7710     3.2612 C.3     
  18 C18           -7.0695    -4.6662     3.4638 C.3     
  19 C19           -7.5417    -4.9836     2.0276 C.3     
  20 C20            0.1884    -4.2753    -0.2357 C.3     
  21 C21            2.3079     0.2235    -0.7482 C.3     
  22 H22            2.0938    -2.4621    -0.8267 H       
  23 H23           -2.0463    -0.3254     0.8272 H       
  24 H24           -1.2755     3.0202     0.6239 H       
  25 H25           -3.7569    -5.7666     1.3189 H       
  26 H26           -3.7583    -1.6324     1.0721 H       
  27 H27           -6.1864    -2.7474     1.3718 H       
  28 H28           -4.9413    -4.2449     3.6852 H       
  29 H29           -5.9861    -2.7893     3.7071 H       
  30 H30           -6.7987    -5.5827     3.9881 H       
  31 H31           -7.8435    -4.1271     4.0100 H       
  32 H32           -8.3164    -4.2816     1.7191 H       
  33 H33           -7.9103    -6.0076     1.9669 H       
  34 H34            0.4471    -4.7029     0.7330 H       
  35 H35           -0.7750    -4.6683    -0.5607 H       
  36 H36            0.9535    -4.5396    -0.9656 H       
  37 H37            2.8800     0.4760     0.1446 H       
  38 H38            2.9402    -0.3338    -1.4394 H       
  39 H39            1.9624     1.1386    -1.2291 H       
@<TRIPOS>BOND
   1    1    2 1
   2    1    8 2
   3    1    9 1
   4    2    3 ar
   5    2    7 ar
   6    3    4 ar
   7    3   21 1
   8    4    5 ar
   9    4   22 1
  10    5    6 ar
  11    5   20 1
  12    6    7 ar
  13    6   10 1
  14    7   23 1
  15    9   24 1
  16   10   11 2
  17   10   14 1
  18   11   12 1
  19   12   13 2
  20   12   25 1
  21   13   14 1
  22   13   16 1
  23   14   26 1
  24   15   16 1
  25   15   19 1
  26   16   17 1
  27   16   27 1
  28   17   18 1
  29   17   28 1
  30   17   29 1
  31   18   19 1
  32   18   30 1
  33   18   31 1
  34   19   32 1
  35   19   33 1
  36   20   34 1
  37   20   35 1
  38   20   36 1
  39   21   37 1
  40   21   38 1
  41   21   39 1

#	End of record

