#	Name: ASD03080158
#	Creating user name:	WinNT
#	Creation time:	15. 06. 2019 20:26

#	Modifying user name:	WinNT
#	Modification time:	15. 06. 2019 20:26

#	Program:	/corina/corina34_cracker 3.40 0067  02.08.2006

@<TRIPOS>MOLECULE
ASD03080158
  47   50    0    0    0
SMALL
NO_CHARGES


@<TRIPOS>ATOM
   1 C1            -0.0705     1.1756     0.2869 C.3     
   2 C2             0.0229    -0.3505     0.1712 C.3     
   3 C3             0.4950    -0.6979    -1.2389 C.3     
   4 C4             1.7383     0.0793    -1.5887 C.ar    
   5 C5             2.1252     1.2035    -0.8965 C.ar    
   6 C6             1.3460     1.7463     0.2729 C.3     
   7 C7             2.5028    -0.3815    -2.6567 C.ar    
   8 C8             3.6504     0.2792    -3.0370 C.ar    
   9 C9             4.0458     1.4177    -2.3452 C.ar    
  10 C10            3.2851     1.8865    -1.2705 C.ar    
  11 C11            5.1934     2.3456    -2.4864 C.2     
  12 C12            5.0009     3.3530    -1.4114 C.2     
  13 N13            3.8792     3.0302    -0.7446 N.am    
  14 O14            5.7275     4.2987    -1.1766 O.2     
  15 N15            6.1577     2.2898    -3.3599 N.2     
  16 O16            7.1806     3.2688    -3.3486 O.3     
  17 S17            1.9977    -1.8254    -3.5313 S.o2    
  18 N18            0.5305    -1.4915    -4.2229 N.am    
  19 O19            2.9180    -1.9886    -4.6017 O.2     
  20 O20            1.7607    -2.8261    -2.5507 O.2     
  21 O21            0.4254    -0.4777    -5.2058 O.3     
  22 C22           -0.8973    -0.2973    -5.7156 C.3     
  23 C23           -0.8922     0.7997    -6.7488 C.ar    
  24 C24           -0.6700     0.4955    -8.0788 C.ar    
  25 C25           -0.6653     1.5018    -9.0266 C.ar    
  26 C26           -0.8832     2.8123    -8.6443 C.ar    
  27 C27           -1.1062     3.1164    -7.3144 C.ar    
  28 C28           -1.1153     2.1095    -6.3673 C.ar    
  29 H29           -0.6353     1.5739    -0.5560 H       
  30 H30           -0.5652     1.4435     1.2205 H       
  31 H31            0.7369    -0.7311     0.9017 H       
  32 H32           -0.9571    -0.7930     0.3499 H       
  33 H33            0.7111    -1.7649    -1.2928 H       
  34 H34           -0.2931    -0.4550    -1.9517 H       
  35 H35            1.2953     2.8325     0.1978 H       
  36 H36            1.8520     1.4741     1.1992 H       
  37 H37            4.2385    -0.0852    -3.8662 H       
  38 H38            3.5281     3.5312     0.0082 H       
  39 H39            7.8517     3.1444    -4.0337 H       
  40 H40           -0.2569    -1.9904    -3.9545 H       
  41 H41           -1.2402    -1.2254    -6.1728 H       
  42 H42           -1.5670    -0.0250    -4.8999 H       
  43 H43           -0.4998    -0.5283    -8.3775 H       
  44 H44           -0.4910     1.2642   -10.0656 H       
  45 H45           -0.8788     3.5986    -9.3847 H       
  46 H46           -1.2761     4.1403    -7.0157 H       
  47 H47           -1.2895     2.3471    -5.3282 H       
@<TRIPOS>BOND
   1    1    2 1
   2    1    6 1
   3    1   29 1
   4    1   30 1
   5    2    3 1
   6    2   31 1
   7    2   32 1
   8    3    4 1
   9    3   33 1
  10    3   34 1
  11    4    5 ar
  12    4    7 ar
  13    5    6 1
  14    5   10 ar
  15    6   35 1
  16    6   36 1
  17    7    8 ar
  18    7   17 1
  19    8    9 ar
  20    8   37 1
  21    9   10 ar
  22    9   11 1
  23   10   13 1
  24   11   12 1
  25   11   15 2
  26   12   13 am
  27   12   14 2
  28   13   38 1
  29   15   16 1
  30   16   39 1
  31   17   18 am
  32   17   19 2
  33   17   20 2
  34   18   21 1
  35   18   40 1
  36   21   22 1
  37   22   23 1
  38   22   41 1
  39   22   42 1
  40   23   24 ar
  41   23   28 ar
  42   24   25 ar
  43   24   43 1
  44   25   26 ar
  45   25   44 1
  46   26   27 ar
  47   26   45 1
  48   27   28 ar
  49   27   46 1
  50   28   47 1

#	End of record

