#	Name: ASD01882011
#	Creating user name:	WinNT
#	Creation time:	15. 06. 2019 19:43

#	Modifying user name:	WinNT
#	Modification time:	15. 06. 2019 19:43

#	Program:	/corina/corina34_cracker 3.40 0067  02.08.2006

@<TRIPOS>MOLECULE
ASD01882011
  38   40    0    0    0
SMALL
NO_CHARGES


@<TRIPOS>ATOM
   1 C1            -0.0187     1.5258     0.0104 C.3     
   2 C2             0.0021    -0.0041     0.0020 C.3     
   3 C3             0.7182    -0.4975    -1.2568 C.3     
   4 C4             0.6303    -2.0233    -1.3286 C.3     
   5 O5             0.6932    -0.4774     1.1597 O.3     
   6 O6             1.2992    -2.4841    -2.5043 O.3     
   7 N7             1.5024    -7.8461    -3.6054 N.pl3   
   8 N8             2.2306    -7.7312    -4.7988 N.2     
   9 N9             2.4773    -6.4905    -5.0321 N.2     
  10 C10            1.9568    -5.7180    -4.0577 C.ar    
  11 C11            1.3263    -6.5662    -3.1309 C.ar    
  12 C12            1.9438    -4.3338    -3.8378 C.ar    
  13 C13            1.3138    -3.8267    -2.7201 C.ar    
  14 C14            0.6931    -4.6798    -1.8109 C.ar    
  15 C15            0.6989    -6.0315    -2.0114 C.ar    
  16 C16            1.0190    -9.0840    -2.9889 C.3     
  17 C17            2.0829    -9.6267    -2.0325 C.3     
  18 C18            1.7210   -10.8569    -1.1979 C.3     
  19 C19            2.7034   -10.9854    -2.3637 C.3     
  20 Br20           2.7841    -3.1678    -5.0667 Br      
  21 H21            1.0039     1.9031     0.0027 H       
  22 H22           -0.5459     1.8868    -0.8726 H       
  23 H23           -0.5289     1.8773     0.9072 H       
  24 H24           -1.0205    -0.3814     0.0098 H       
  25 H25            0.2444    -0.0644    -2.1377 H       
  26 H26            1.7648    -0.1951    -1.2215 H       
  27 H27            1.1041    -2.4564    -0.4477 H       
  28 H28           -0.4163    -2.3257    -1.3639 H       
  29 H29            0.2938    -0.2021     1.9962 H       
  30 H30            0.2039    -4.2698    -0.9397 H       
  31 H31            0.2150    -6.6847    -1.3004 H       
  32 H32            0.1025    -8.8803    -2.4351 H       
  33 H33            0.8179    -9.8221    -3.7653 H       
  34 H34            2.7270    -8.8777    -1.5719 H       
  35 H35            2.1274   -10.9173    -0.1883 H       
  36 H36            0.7250   -11.2795    -1.3301 H       
  37 H37            2.3538   -11.4926    -3.2629 H       
  38 H38            3.7561   -11.1305    -2.1211 H       
@<TRIPOS>BOND
   1    1    2 1
   2    1   21 1
   3    1   22 1
   4    1   23 1
   5    2    3 1
   6    2    5 1
   7    2   24 1
   8    3    4 1
   9    3   25 1
  10    3   26 1
  11    4    6 1
  12    4   27 1
  13    4   28 1
  14    5   29 1
  15    6   13 1
  16    7    8 1
  17    7   11 1
  18    7   16 1
  19    8    9 2
  20    9   10 1
  21   10   11 ar
  22   10   12 ar
  23   11   15 ar
  24   12   13 ar
  25   12   20 1
  26   13   14 ar
  27   14   15 ar
  28   14   30 1
  29   15   31 1
  30   16   17 1
  31   16   32 1
  32   16   33 1
  33   17   18 1
  34   17   19 1
  35   17   34 1
  36   18   19 1
  37   18   35 1
  38   18   36 1
  39   19   37 1
  40   19   38 1

#	End of record

