#	Name: ASD03731860
#	Creating user name:	WinNT
#	Creation time:	15. 06. 2019 20:46

#	Modifying user name:	WinNT
#	Modification time:	15. 06. 2019 20:46

#	Program:	/corina/corina34_cracker 3.40 0067  02.08.2006

@<TRIPOS>MOLECULE
ASD03731860
  33   34    0    0    0
SMALL
NO_CHARGES


@<TRIPOS>ATOM
   1 C1            -0.0592     1.4699     0.0141 C.2     
   2 C2            -0.0291    -0.0046     0.0050 C.ar    
   3 C3             1.1808    -0.6795    -0.1850 C.ar    
   4 C4             1.2058    -2.0501    -0.1925 C.ar    
   5 C5             0.0275    -2.7706    -0.0111 C.ar    
   6 C6            -1.1792    -2.1011     0.1785 C.ar    
   7 C7            -1.2095    -0.7306     0.1922 C.ar    
   8 O8             0.9688     2.1000    -0.1438 O.2     
   9 N9            -1.2269     2.1190     0.1919 N.am    
  10 S10           -1.2607     3.7746     0.2021 S.o2    
  11 O11           -2.6253     4.0958     0.4344 O.2     
  12 O12           -0.2529     4.1399     1.1349 O.2     
  13 S13            0.0635    -4.5322    -0.0219 S.3     
  14 C14            0.2355    -4.9356     1.6846 C.ar    
  15 C15            0.4181    -3.9278     2.6235 C.ar    
  16 C16            0.5520    -4.2474     3.9602 C.ar    
  17 C17            0.5047    -5.5690     4.3656 C.ar    
  18 C18            0.3236    -6.5753     3.4345 C.ar    
  19 C19            0.1831    -6.2628     2.0957 C.ar    
  20 Cl20          -0.0520    -7.5258     0.9282 Cl      
  21 C21           -0.7729     4.2477    -1.4799 C.3     
  22 H22            2.0947    -0.1214    -0.3261 H       
  23 H23            2.1399    -2.5719    -0.3396 H       
  24 H24           -2.0912    -2.6623     0.3189 H       
  25 H25           -2.1447    -0.2121     0.3436 H       
  26 H26           -2.0475     1.6164     0.3138 H       
  27 H27            0.4555    -2.8956     2.3082 H       
  28 H28            0.6943    -3.4643     4.6902 H       
  29 H29            0.6098    -5.8157     5.4118 H       
  30 H30            0.2875    -7.6062     3.7545 H       
  31 H31           -1.4822     3.8306    -2.1947 H       
  32 H32           -0.7681     5.3344    -1.5647 H       
  33 H33            0.2246     3.8623    -1.6908 H       
@<TRIPOS>BOND
   1    1    2 1
   2    1    8 2
   3    1    9 am
   4    2    3 ar
   5    2    7 ar
   6    3    4 ar
   7    3   22 1
   8    4    5 ar
   9    4   23 1
  10    5    6 ar
  11    5   13 1
  12    6    7 ar
  13    6   24 1
  14    7   25 1
  15    9   10 am
  16    9   26 1
  17   10   11 2
  18   10   12 2
  19   10   21 1
  20   13   14 1
  21   14   15 ar
  22   14   19 ar
  23   15   16 ar
  24   15   27 1
  25   16   17 ar
  26   16   28 1
  27   17   18 ar
  28   17   29 1
  29   18   19 ar
  30   18   30 1
  31   19   20 1
  32   21   31 1
  33   21   32 1
  34   21   33 1

#	End of record

