#	Name: ASD00843739
#	Creating user name:	WinNT
#	Creation time:	15. 06. 2019 18:47

#	Modifying user name:	WinNT
#	Modification time:	15. 06. 2019 18:47

#	Program:	/corina/corina34_cracker 3.40 0067  02.08.2006

@<TRIPOS>MOLECULE
ASD00843739
  96  101    0    0    0
SMALL
NO_CHARGES


@<TRIPOS>ATOM
   1 N1            -0.0159     1.3183     0.0093 N.ar    
   2 C2             0.0021    -0.0041     0.0020 C.ar    
   3 C3             1.2069    -0.6955    -0.0132 C.ar    
   4 C4             2.3925     0.0180    -0.0207 C.ar    
   5 C5             2.3308     1.4049    -0.0127 C.ar    
   6 C6             1.0980     2.0259     0.0025 C.ar    
   7 C7             1.2224    -2.2024    -0.0209 C.3     
   8 C8             0.4763    -2.7343    -1.2260 C.2     
   9 O9             2.5880    -2.6958    -0.0096 O.3     
  10 C10            3.3814    -2.3221    -1.0311 C.2     
  11 N11            4.6601    -2.7453    -1.0809 N.am    
  12 O12            2.9448    -1.6033    -1.9081 O.2     
  13 C13            5.5381    -2.3459    -2.1892 C.3     
  14 C14            6.1425    -3.6054    -2.8179 C.3     
  15 C15            6.8369    -4.4300    -1.7316 C.3     
  16 C16            5.8107    -4.8596    -0.6806 C.3     
  17 C17            5.2042    -3.6097    -0.0248 C.3     
  18 C18            7.4715    -5.6715    -2.3616 C.3     
  19 C19            8.4998    -5.2434    -3.4122 C.3     
  20 C20            9.1744    -6.4872    -3.9952 C.3     
  21 N21            9.8319    -7.2389    -2.9187 N.3     
  22 C22            8.8575    -7.7012    -1.9220 C.3     
  23 C23            8.1734    -6.4936    -1.2772 C.3     
  24 C24           10.6062    -8.3642    -3.4592 C.3     
  25 O25            0.7557    -2.5393    -2.3900 O.2     
  26 N26           -0.5539    -3.4626    -0.7638 N.am    
  27 C27            0.4501    -2.7460     1.1591 C.ar    
  28 C28           -0.5980    -3.4898     0.6311 C.ar    
  29 C29            0.6149    -2.6258     2.5206 C.ar    
  30 C30           -0.2710    -3.2513     3.3818 C.ar    
  31 C31           -1.3206    -3.9961     2.8679 C.ar    
  32 C32           -1.4864    -4.1171     1.5014 C.ar    
  33 Cl33          -0.0671    -3.1033     5.0994 Cl      
  34 F34           -2.1857    -4.6069     3.7068 F       
  35 C35           -1.0174    -5.8570    -2.0393 C.ar    
  36 C36            0.1607    -6.0209    -2.7538 C.ar    
  37 C37           -1.6952    -6.9616    -1.5594 C.ar    
  38 C38           -1.2018    -8.2313    -1.7893 C.ar    
  39 C39           -0.0238    -8.4005    -2.5035 C.ar    
  40 C40            0.6577    -7.2942    -2.9862 C.ar    
  41 O41            0.4609    -9.6498    -2.7297 O.3     
  42 O42            0.8265    -4.9343    -3.2257 O.3     
  43 C43            2.0325    -5.1777    -3.9527 C.3     
  44 C44           -0.2935   -10.7435    -2.2035 C.3     
  45 C45           11.3745    -9.0460    -2.3253 C.3     
  46 C46            9.6558    -9.3717    -4.1093 C.3     
  47 O47           -1.1673    -0.6919     0.0099 O.3     
  48 C48           -2.3720     0.0766     0.0260 C.3     
  49 C49           -3.5777    -0.8652     0.0330 C.3     
  50 F50           -3.5507    -1.6659    -1.1140 F       
  51 F51           -3.5280    -1.6782     1.1704 F       
  52 S52           -1.6459    -4.2388    -1.7372 S.o2    
  53 O53           -2.8262    -4.4047    -0.9636 O.2     
  54 O54           -1.6238    -3.5603    -2.9856 O.2     
  55 H55            3.3442    -0.4925    -0.0322 H       
  56 H56            3.2375     1.9916    -0.0178 H       
  57 H57            1.0444     3.1046     0.0084 H       
  58 H58            4.9588    -1.8057    -2.9380 H       
  59 H59            6.3363    -1.7072    -1.8110 H       
  60 H60            5.3512    -4.1992    -3.2754 H       
  61 H61            6.8694    -3.3196    -3.5781 H       
  62 H62            7.6116    -3.8273    -1.2576 H       
  63 H63            5.0225    -5.4416    -1.1583 H       
  64 H64            6.3014    -5.4664     0.0803 H       
  65 H65            5.9766    -3.0766     0.5294 H       
  66 H66            4.4031    -3.9050     0.6529 H       
  67 H67            6.6975    -6.2760    -2.8345 H       
  68 H68            7.9986    -4.6939    -4.2092 H       
  69 H69            9.2516    -4.6059    -2.9470 H       
  70 H70            8.4239    -7.1175    -4.4723 H       
  71 H71            9.9173    -6.1851    -4.7334 H       
  72 H72            8.1086    -8.3258    -2.4089 H       
  73 H73            9.3703    -8.2809    -1.1545 H       
  74 H74            8.9201    -5.8758    -0.7783 H       
  75 H75            7.4391    -6.8374    -0.5487 H       
  76 H76           11.3105    -7.9956    -4.2050 H       
  77 H77            1.4345    -2.0447     2.9166 H       
  78 H78           -2.3067    -4.6987     1.1074 H       
  79 H79           -2.6121    -6.8320    -1.0035 H       
  80 H80           -1.7329    -9.0930    -1.4127 H       
  81 H81            1.5743    -7.4238    -3.5424 H       
  82 H82            2.7428    -5.7015    -3.3132 H       
  83 H83            1.8120    -5.7890    -4.8278 H       
  84 H84            2.4623    -4.2282    -4.2718 H       
  85 H85            0.2025   -11.6811    -2.4545 H       
  86 H86           -0.3638   -10.6483    -1.1199 H       
  87 H87           -1.2945   -10.7352    -2.6346 H       
  88 H88           10.6702    -9.4146    -1.5795 H       
  89 H89           11.9491    -9.8810    -2.7264 H       
  90 H90           12.0516    -8.3283    -1.8622 H       
  91 H91            9.1085    -8.8859    -4.9171 H       
  92 H92           10.2304   -10.2066    -4.5104 H       
  93 H93            8.9516    -9.7403    -3.3635 H       
  94 H94           -2.3931     0.7004     0.9196 H       
  95 H95           -2.4108     0.7099    -0.8602 H       
  96 H96           -4.4966    -0.2790     0.0452 H       
@<TRIPOS>BOND
   1    1    2 ar
   2    1    6 ar
   3    2    3 ar
   4    2   47 1
   5    3    4 ar
   6    3    7 1
   7    4    5 ar
   8    4   55 1
   9    5    6 ar
  10    5   56 1
  11    6   57 1
  12    7    8 1
  13    7    9 1
  14    7   27 1
  15    8   25 2
  16    8   26 am
  17    9   10 1
  18   10   11 am
  19   10   12 2
  20   11   13 1
  21   11   17 1
  22   13   14 1
  23   13   58 1
  24   13   59 1
  25   14   15 1
  26   14   60 1
  27   14   61 1
  28   15   16 1
  29   15   18 1
  30   15   62 1
  31   16   17 1
  32   16   63 1
  33   16   64 1
  34   17   65 1
  35   17   66 1
  36   18   19 1
  37   18   23 1
  38   18   67 1
  39   19   20 1
  40   19   68 1
  41   19   69 1
  42   20   21 1
  43   20   70 1
  44   20   71 1
  45   21   22 1
  46   21   24 1
  47   22   23 1
  48   22   72 1
  49   22   73 1
  50   23   74 1
  51   23   75 1
  52   24   45 1
  53   24   46 1
  54   24   76 1
  55   26   52 am
  56   26   28 1
  57   27   28 ar
  58   27   29 ar
  59   28   32 ar
  60   29   30 ar
  61   29   77 1
  62   30   31 ar
  63   30   33 1
  64   31   32 ar
  65   31   34 1
  66   32   78 1
  67   35   36 ar
  68   35   37 ar
  69   35   52 1
  70   36   42 1
  71   36   40 ar
  72   37   38 ar
  73   37   79 1
  74   38   39 ar
  75   38   80 1
  76   39   40 ar
  77   39   41 1
  78   40   81 1
  79   41   44 1
  80   42   43 1
  81   43   82 1
  82   43   83 1
  83   43   84 1
  84   44   85 1
  85   44   86 1
  86   44   87 1
  87   45   88 1
  88   45   89 1
  89   45   90 1
  90   46   91 1
  91   46   92 1
  92   46   93 1
  93   47   48 1
  94   48   49 1
  95   48   94 1
  96   48   95 1
  97   49   50 1
  98   49   51 1
  99   49   96 1
 100   52   53 2
 101   52   54 2

#	End of record

