#	Name: ASD01881972
#	Creating user name:	WinNT
#	Creation time:	15. 06. 2019 19:43

#	Modifying user name:	WinNT
#	Modification time:	15. 06. 2019 19:43

#	Program:	/corina/corina34_cracker 3.40 0067  02.08.2006

@<TRIPOS>MOLECULE
ASD01881972
  53   56    0    0    0
SMALL
NO_CHARGES


@<TRIPOS>ATOM
   1 N1            -0.0154     1.2839     0.0091 N.pl3   
   2 N2             0.0021    -0.0041     0.0020 N.2     
   3 N3             1.2033    -0.4649    -0.0119 N.2     
   4 C4             2.0741     0.5645    -0.0147 C.ar    
   5 C5             1.2843     1.7298    -0.0009 C.ar    
   6 C6             3.4670     0.6759    -0.0271 C.ar    
   7 C7             4.0484     1.9285    -0.0255 C.ar    
   8 C8             3.2560     3.0739    -0.0118 C.ar    
   9 C9             1.8924     2.9784    -0.0004 C.ar    
  10 C10           -1.2133     2.1272     0.0196 C.3     
  11 C11           -1.6228     2.4135     1.4657 C.3     
  12 C12           -2.7884     3.3784     1.6921 C.3     
  13 C13           -2.9777     1.8797     1.9351 C.3     
  14 Br14           4.5472    -0.8761    -0.0451 Br      
  15 O15            5.4033     2.0444    -0.0370 O.3     
  16 C16            5.9411     3.3683    -0.0346 C.3     
  17 C17            7.4694     3.2979    -0.0487 C.3     
  18 C18            8.0453     4.7154    -0.0462 C.3     
  19 N19            9.5127     4.6478    -0.0597 N.3     
  20 C20           10.0986     5.9740    -0.2959 C.3     
  21 C21           11.6192     5.8951    -0.1232 C.3     
  22 N22           12.1331     4.8246    -0.9910 N.am    
  23 C23           11.5016     3.4988    -0.9089 C.3     
  24 C24            9.9857     3.6721    -1.0507 C.3     
  25 C25           13.1558     5.0524    -1.8387 C.2     
  26 O26           13.6651     6.1518    -1.8931 O.2     
  27 C27           13.6667     3.9410    -2.7190 C.3     
  28 H28            3.7236     4.0474    -0.0103 H       
  29 H29            1.2882     3.8735     0.0104 H       
  30 H30           -1.0007     3.0667    -0.4906 H       
  31 H31           -2.0254     1.6113    -0.4926 H       
  32 H32           -0.8089     2.4286     2.1906 H       
  33 H33           -2.7416     4.0280     2.5661 H       
  34 H34           -3.2635     3.8093     0.8107 H       
  35 H35           -3.5773     1.3246     1.2137 H       
  36 H36           -3.0553     1.5434     2.9690 H       
  37 H37            5.5939     3.9031    -0.9187 H       
  38 H38            5.6098     3.8935     0.8612 H       
  39 H39            7.8167     2.7631     0.8353 H       
  40 H40            7.8008     2.7728    -0.9445 H       
  41 H41            7.6981     5.2502    -0.9302 H       
  42 H42            7.7140     5.2406     0.8496 H       
  43 H43            9.8641     6.3000    -1.3093 H       
  44 H44            9.6877     6.6860     0.4199 H       
  45 H45           12.0700     6.8457    -0.4083 H       
  46 H46           11.8585     5.6704     0.9162 H       
  47 H47           11.8746     2.8651    -1.7135 H       
  48 H48           11.7296     3.0438     0.0550 H       
  49 H49            9.4928     2.7146    -0.8823 H       
  50 H50            9.7527     4.0301    -2.0535 H       
  51 H51           12.8620     3.5904    -3.3654 H       
  52 H52           14.4892     4.3112    -3.3311 H       
  53 H53           14.0183     3.1176    -2.0974 H       
@<TRIPOS>BOND
   1    1    2 1
   2    1    5 1
   3    1   10 1
   4    2    3 2
   5    3    4 1
   6    4    5 ar
   7    4    6 ar
   8    5    9 ar
   9    6    7 ar
  10    6   14 1
  11    7    8 ar
  12    7   15 1
  13    8    9 ar
  14    8   28 1
  15    9   29 1
  16   10   11 1
  17   10   30 1
  18   10   31 1
  19   11   12 1
  20   11   13 1
  21   11   32 1
  22   12   13 1
  23   12   33 1
  24   12   34 1
  25   13   35 1
  26   13   36 1
  27   15   16 1
  28   16   17 1
  29   16   37 1
  30   16   38 1
  31   17   18 1
  32   17   39 1
  33   17   40 1
  34   18   19 1
  35   18   41 1
  36   18   42 1
  37   19   20 1
  38   19   24 1
  39   20   21 1
  40   20   43 1
  41   20   44 1
  42   21   22 1
  43   21   45 1
  44   21   46 1
  45   22   23 1
  46   22   25 am
  47   23   24 1
  48   23   47 1
  49   23   48 1
  50   24   49 1
  51   24   50 1
  52   25   26 2
  53   25   27 1
  54   27   51 1
  55   27   52 1
  56   27   53 1

#	End of record

