#	Name: ASD03091708
#	Creating user name:	WinNT
#	Creation time:	15. 06. 2019 20:31

#	Modifying user name:	WinNT
#	Modification time:	15. 06. 2019 20:31

#	Program:	/corina/corina34_cracker 3.40 0067  02.08.2006

@<TRIPOS>MOLECULE
ASD03091708
  55   58    0    0    0
SMALL
NO_CHARGES


@<TRIPOS>ATOM
   1 C1            -0.0645     1.3754    -0.2015 C.2     
   2 C2             0.0345     0.0515     0.0403 C.2     
   3 N3            -1.1175    -0.5493     0.2449 N.2     
   4 C4            -2.1862     0.1875     0.1907 C.2     
   5 S5            -1.7702     1.8121    -0.1408 S.3     
   6 N6            -3.4757    -0.2753     0.3801 N.3     
   7 C7            -4.4515     0.8167     0.2515 C.3     
   8 C8            -3.6097    -0.9429     1.6830 C.3     
   9 C9            -5.0322    -1.4906     1.8258 C.3     
  10 O10           -5.9678    -0.4207     1.6669 O.3     
  11 C11           -5.8656     0.2513     0.4086 C.3     
  12 C12            1.0586     2.2963    -0.4642 C.ar    
  13 C13            1.0178     3.1938    -1.5397 C.ar    
  14 C14            2.1931     2.3019     0.3583 C.ar    
  15 C15            3.2180     3.1789     0.0764 C.ar    
  16 N16            3.1405     4.0049    -0.9505 N.ar    
  17 C17            2.0885     4.0360    -1.7476 C.ar    
  18 C18            1.3534    -0.6770     0.0732 C.3     
  19 C19            4.4439     3.1955     0.9526 C.3     
  20 N20            1.8255    -0.7700     1.4569 N.am    
  21 C21            2.9931    -1.3850     1.7307 C.2     
  22 C22            3.4712    -1.4791     3.1317 C.2     
  23 O23            3.6541    -1.8622     0.8299 O.2     
  24 C24            2.0606     5.0019    -2.9039 C.3     
  25 C25           -6.8815     1.3941     0.3558 C.3     
  26 N26            2.8721    -1.0162     4.2006 N.2     
  27 O27            3.5104    -1.2491     5.2007 O.3     
  28 C28            4.6427    -1.9115     4.9267 C.2     
  29 C29            4.6699    -2.0959     3.5864 C.2     
  30 C30            5.6811    -2.3676     5.9190 C.3     
  31 H31           -4.2690     1.5611     1.0265 H       
  32 H32           -4.3518     1.2802    -0.7300 H       
  33 H33           -2.8955    -1.7639     1.7465 H       
  34 H34           -3.4137    -0.2266     2.4809 H       
  35 H35           -5.2098    -2.2461     1.0605 H       
  36 H36           -5.1532    -1.9363     2.8131 H       
  37 H37           -6.0674    -0.4535    -0.3979 H       
  38 H38            0.1605     3.2247    -2.1958 H       
  39 H39            2.2630     1.6294     1.2005 H       
  40 H40            1.2250    -1.6794    -0.3351 H       
  41 H41            2.0844    -0.1322    -0.5243 H       
  42 H42            5.1793     2.4921     0.5621 H       
  43 H43            4.8701     4.1987     0.9622 H       
  44 H44            4.1691     2.9078     1.9674 H       
  45 H45            1.2978    -0.3889     2.1761 H       
  46 H46            2.4897     4.5258    -3.7855 H       
  47 H47            1.0301     5.2900    -3.1119 H       
  48 H48            2.6417     5.8886    -2.6507 H       
  49 H49           -6.6774     2.0992     1.1616 H       
  50 H50           -6.8031     1.9059    -0.6034 H       
  51 H51           -7.8877     0.9914     0.4716 H       
  52 H52            5.4281    -2.5912     2.9980 H       
  53 H53            5.3759    -2.0763     6.9240 H       
  54 H54            5.7797    -3.4520     5.8692 H       
  55 H55            6.6388    -1.9044     5.6815 H       
@<TRIPOS>BOND
   1    1    2 2
   2    1   12 1
   3    1    5 1
   4    2    3 1
   5    2   18 1
   6    3    4 2
   7    4    5 1
   8    4    6 1
   9    6    7 1
  10    6    8 1
  11    7   11 1
  12    7   31 1
  13    7   32 1
  14    8    9 1
  15    8   33 1
  16    8   34 1
  17    9   10 1
  18    9   35 1
  19    9   36 1
  20   10   11 1
  21   11   25 1
  22   11   37 1
  23   12   13 ar
  24   12   14 ar
  25   13   17 ar
  26   13   38 1
  27   14   15 ar
  28   14   39 1
  29   15   16 ar
  30   15   19 1
  31   16   17 ar
  32   17   24 1
  33   18   20 1
  34   18   40 1
  35   18   41 1
  36   19   42 1
  37   19   43 1
  38   19   44 1
  39   20   21 am
  40   20   45 1
  41   21   22 1
  42   21   23 2
  43   22   26 2
  44   22   29 1
  45   24   46 1
  46   24   47 1
  47   24   48 1
  48   25   49 1
  49   25   50 1
  50   25   51 1
  51   26   27 1
  52   27   28 1
  53   28   29 2
  54   28   30 1
  55   29   52 1
  56   30   53 1
  57   30   54 1
  58   30   55 1

#	End of record

