#	Name: ASD04880104
#	Creating user name:	WinNT
#	Creation time:	15. 06. 2019 20:52

#	Modifying user name:	WinNT
#	Modification time:	15. 06. 2019 20:52

#	Program:	/corina/corina34_cracker 3.40 0067  02.08.2006

@<TRIPOS>MOLECULE
ASD04880104
  44   46    0    0    0
SMALL
NO_CHARGES


@<TRIPOS>ATOM
   1 C1            -0.0144     1.2118     0.0087 C.2     
   2 O2             0.0580    -0.0018    -0.0139 O.2     
   3 C3             1.2185     2.0263    -0.0193 C.ar    
   4 C4             2.4681     1.4102     0.0724 C.ar    
   5 C5             3.5286     3.5525    -0.0717 C.ar    
   6 C6             1.1390     3.4143    -0.1433 C.ar    
   7 C7             3.6148     2.1763     0.0457 C.ar    
   8 C8             2.2938     4.1688    -0.1688 C.ar    
   9 C9             4.9644     1.5132     0.1450 C.3     
  10 N10           -1.2192     1.8142     0.0538 N.am    
  11 N11           -1.4359     3.1833     0.1953 N.2     
  12 C12           -2.6795     3.5205     0.2117 C.2     
  13 C13           -3.5396     2.2853     0.0676 C.3     
  14 C14           -2.5204     1.1342    -0.0448 C.3     
  15 C15           -3.1857     4.8981     0.3496 C.ar    
  16 C16           -2.2905     5.9641     0.4757 C.ar    
  17 C17           -2.7704     7.2535     0.6043 C.ar    
  18 C18           -4.1440     7.4889     0.6079 C.ar    
  19 C19           -5.0326     6.4314     0.4827 C.ar    
  20 C20           -4.5611     5.1421     0.3487 C.ar    
  21 O21           -4.6140     8.7580     0.7349 O.3     
  22 C22           -6.0329     8.9278     0.7309 C.3     
  23 O23           -1.9022     8.2930     0.7277 O.3     
  24 C24           -0.5082     7.9788     0.7165 C.3     
  25 H25            2.5367     0.3364     0.1644 H       
  26 H26            4.4296     4.1477    -0.0921 H       
  27 H27            0.1756     3.8966    -0.2195 H       
  28 H28            2.2336     5.2432    -0.2601 H       
  29 H29            5.3231     1.2678    -0.8546 H       
  30 H30            5.6680     2.1919     0.6271 H       
  31 H31            4.8782     0.6004     0.7344 H       
  32 H32           -4.1729     2.1559     0.9453 H       
  33 H33           -4.1452     2.3444    -0.8367 H       
  34 H34           -2.6163     0.6268    -1.0048 H       
  35 H35           -2.6483     0.4296     0.7770 H       
  36 H36           -1.2262     5.7804     0.4732 H       
  37 H37           -6.0963     6.6183     0.4864 H       
  38 H38           -5.2552     4.3210     0.2469 H       
  39 H39           -6.4405     8.5572    -0.2097 H       
  40 H40           -6.4679     8.3700     1.5602 H       
  41 H41           -6.2726     9.9856     0.8391 H       
  42 H42           -0.2526     7.4939    -0.2257 H       
  43 H43            0.0717     8.8956     0.8224 H       
  44 H44           -0.2805     7.3071     1.5443 H       
@<TRIPOS>BOND
   1    1    2 2
   2    1    3 1
   3    1   10 am
   4    3    4 ar
   5    3    6 ar
   6    4    7 ar
   7    4   25 1
   8    5    7 ar
   9    5    8 ar
  10    5   26 1
  11    6    8 ar
  12    6   27 1
  13    7    9 1
  14    8   28 1
  15    9   29 1
  16    9   30 1
  17    9   31 1
  18   10   11 1
  19   10   14 1
  20   11   12 2
  21   12   13 1
  22   12   15 1
  23   13   14 1
  24   13   32 1
  25   13   33 1
  26   14   34 1
  27   14   35 1
  28   15   16 ar
  29   15   20 ar
  30   16   17 ar
  31   16   36 1
  32   17   18 ar
  33   17   23 1
  34   18   19 ar
  35   18   21 1
  36   19   20 ar
  37   19   37 1
  38   20   38 1
  39   21   22 1
  40   22   39 1
  41   22   40 1
  42   22   41 1
  43   23   24 1
  44   24   42 1
  45   24   43 1
  46   24   44 1

#	End of record

