#	Name: ASD02770027
#	Creating user name:	WinNT
#	Creation time:	15. 06. 2019 20:26

#	Modifying user name:	WinNT
#	Modification time:	15. 06. 2019 20:26

#	Program:	/corina/corina34_cracker 3.40 0067  02.08.2006

@<TRIPOS>MOLECULE
ASD02770027
  44   45    0    0    0
SMALL
NO_CHARGES


@<TRIPOS>ATOM
   1 C1            -2.1339     1.4709    -0.5563 C.2     
   2 C2            -2.0376    -0.0039    -0.5824 C.ar    
   3 C3            -3.0949    -0.7666    -1.0814 C.ar    
   4 C4            -2.9987    -2.1426    -1.1028 C.ar    
   5 C5            -1.8576    -2.7668    -0.6309 C.ar    
   6 C6            -0.8060    -2.0167    -0.1350 C.ar    
   7 C7            -0.8868    -0.6397    -0.1136 C.ar    
   8 O8            -3.1354     2.0221    -0.9699 O.2     
   9 N9            -1.1136     2.2042    -0.0689 N.am    
  10 C10           -1.1579     3.6001    -0.1427 C.2     
  11 C11           -0.1096     4.3347     0.2970 C.2     
  12 C12           -2.3426     4.2693    -0.6977 C.2     
  13 O13           -3.3444     4.3946    -0.0187 O.2     
  14 N14           -2.3195     4.7442    -1.9588 N.am    
  15 C15           -3.5336     5.3124    -2.5499 C.3     
  16 C16           -3.2719     5.6604    -4.0166 C.3     
  17 C17           -4.4983     6.3650    -4.6002 C.3     
  18 O18           -4.2539     6.6900    -5.9701 O.3     
  19 C19           -0.2126     5.8001     0.3572 C.ar    
  20 C20            0.8780     6.5989    -0.0118 C.ar    
  21 C21            0.7713     7.9750     0.0477 C.ar    
  22 C22           -0.4076     8.5629     0.4700 C.ar    
  23 C23           -1.4888     7.7797     0.8359 C.ar    
  24 C24           -1.4016     6.4050     0.7776 C.ar    
  25 F25            2.0297     6.0254    -0.4238 F       
  26 H26           -3.9864    -0.2807    -1.4494 H       
  27 H27           -3.8159    -2.7340    -1.4886 H       
  28 H28           -1.7876    -3.8444    -0.6493 H       
  29 H29            0.0817    -2.5101     0.2322 H       
  30 H30           -0.0634    -0.0551     0.2696 H       
  31 H31           -0.3485     1.7639     0.3332 H       
  32 H32            0.8025     3.8444     0.6036 H       
  33 H33           -1.4990     4.7098    -2.4750 H       
  34 H34           -4.3427     4.5848    -2.4879 H       
  35 H35           -3.8141     6.2149    -2.0068 H       
  36 H36           -2.4071     6.3204    -4.0848 H       
  37 H37           -3.0767     4.7465    -4.5777 H       
  38 H38           -5.3631     5.7050    -4.5321 H       
  39 H39           -4.6935     7.2789    -4.0392 H       
  40 H40           -4.9911     7.1399    -6.4052 H       
  41 H41            1.6103     8.5932    -0.2357 H       
  42 H42           -0.4848     9.6392     0.5148 H       
  43 H43           -2.4051     8.2472     1.1647 H       
  44 H44           -2.2482     5.7965     1.0594 H       
@<TRIPOS>BOND
   1    1    2 1
   2    1    8 2
   3    1    9 am
   4    2    3 ar
   5    2    7 ar
   6    3    4 ar
   7    3   26 1
   8    4    5 ar
   9    4   27 1
  10    5    6 ar
  11    5   28 1
  12    6    7 ar
  13    6   29 1
  14    7   30 1
  15    9   10 1
  16    9   31 1
  17   10   11 2
  18   10   12 1
  19   11   19 1
  20   11   32 1
  21   12   13 2
  22   12   14 am
  23   14   15 1
  24   14   33 1
  25   15   16 1
  26   15   34 1
  27   15   35 1
  28   16   17 1
  29   16   36 1
  30   16   37 1
  31   17   18 1
  32   17   38 1
  33   17   39 1
  34   18   40 1
  35   19   20 ar
  36   19   24 ar
  37   20   21 ar
  38   20   25 1
  39   21   22 ar
  40   21   41 1
  41   22   23 ar
  42   22   42 1
  43   23   24 ar
  44   23   43 1
  45   24   44 1

#	End of record

