#	Name: ASD02038640
#	Creating user name:	WinNT
#	Creation time:	15. 06. 2019 20:17

#	Modifying user name:	WinNT
#	Modification time:	15. 06. 2019 20:17

#	Program:	/corina/corina34_cracker 3.40 0067  02.08.2006

@<TRIPOS>MOLECULE
ASD02038640
  42   43    0    0    0
SMALL
NO_CHARGES


@<TRIPOS>ATOM
   1 C1            -0.0167     1.3826     0.0096 C.ar    
   2 C2             0.0021    -0.0041     0.0020 C.ar    
   3 O3            -1.1663    -0.6998     0.0094 O.3     
   4 C4            -1.0723    -2.1257     0.0009 C.3     
   5 C5            -2.4781    -2.7294     0.0111 C.3     
   6 C6            -2.3809    -4.2504    -0.1238 C.3     
   7 N7            -3.7307    -4.8194    -0.2343 N.3     
   8 C8            -3.6764    -6.2816    -0.3657 C.3     
   9 C9            -5.0978    -6.8366    -0.4781 C.3     
  10 C10           -5.0421    -8.3365    -0.6128 C.ar    
  11 C11            1.1719     2.0899     0.0021 C.ar    
  12 C12            2.3831     1.4106    -0.0131 C.ar    
  13 C13            2.4000     0.0245    -0.0207 C.ar    
  14 C14            1.2123    -0.6815    -0.0136 C.ar    
  15 O15            3.5527     2.1053    -0.0210 O.3     
  16 O16           -3.1288    -2.4008     1.2402 O.3     
  17 C17           -5.0683    -9.1329     0.5167 C.ar    
  18 C18           -5.0178   -10.5090     0.3945 C.ar    
  19 C19           -4.9410   -11.0896    -0.8584 C.ar    
  20 C20           -4.9148   -10.2917    -1.9901 C.ar    
  21 C21           -4.9707    -8.9154    -1.8662 C.ar    
  22 Cl22          -4.8184   -11.0189    -3.5635 Cl      
  23 Cl23          -4.8770   -12.8176    -1.0125 Cl      
  24 F24            1.1545     3.4408     0.0091 F       
  25 H25           -0.9592     1.9100     0.0170 H       
  26 H26           -0.5442    -2.4496    -0.8959 H       
  27 H27           -0.5272    -2.4592     0.8839 H       
  28 H28           -3.0525    -2.3267    -0.8232 H       
  29 H29           -1.8071    -4.5001    -1.0162 H       
  30 H30           -1.8839    -4.6620     0.7547 H       
  31 H31           -4.3030    -4.5479     0.5510 H       
  32 H32           -3.1116    -6.5454    -1.2598 H       
  33 H33           -3.1884    -6.7072     0.5111 H       
  34 H34           -5.6626    -6.5728     0.4161 H       
  35 H35           -5.5858    -6.4109    -1.3548 H       
  36 H36            3.3419    -0.5038    -0.0326 H       
  37 H37            1.2263    -1.7614    -0.0199 H       
  38 H38            3.8994     2.3017     0.8601 H       
  39 H39           -2.6718    -2.7284     2.0269 H       
  40 H40           -5.1279    -8.6798     1.4952 H       
  41 H41           -5.0379   -11.1307     1.2774 H       
  42 H42           -4.9503    -8.2925    -2.7483 H       
@<TRIPOS>BOND
   1    1    2 ar
   2    1   11 ar
   3    1   25 1
   4    2    3 1
   5    2   14 ar
   6    3    4 1
   7    4    5 1
   8    4   26 1
   9    4   27 1
  10    5    6 1
  11    5   16 1
  12    5   28 1
  13    6    7 1
  14    6   29 1
  15    6   30 1
  16    7    8 1
  17    7   31 1
  18    8    9 1
  19    8   32 1
  20    8   33 1
  21    9   10 1
  22    9   34 1
  23    9   35 1
  24   10   17 ar
  25   10   21 ar
  26   11   12 ar
  27   11   24 1
  28   12   13 ar
  29   12   15 1
  30   13   14 ar
  31   13   36 1
  32   14   37 1
  33   15   38 1
  34   16   39 1
  35   17   18 ar
  36   17   40 1
  37   18   19 ar
  38   18   41 1
  39   19   20 ar
  40   19   23 1
  41   20   21 ar
  42   20   22 1
  43   21   42 1

#	End of record

