#	Name: ASD05300011
#	Creating user name:	WinNT
#	Creation time:	15. 06. 2019 20:58

#	Modifying user name:	WinNT
#	Modification time:	15. 06. 2019 20:58

#	Program:	/corina/corina34_cracker 3.40 0067  02.08.2006

@<TRIPOS>MOLECULE
ASD05300011
  42   44    0    0    0
SMALL
NO_CHARGES


@<TRIPOS>ATOM
   1 C1            -0.0187     1.5258     0.0104 C.3     
   2 C2             0.0021    -0.0041     0.0020 C.3     
   3 C3             0.7182    -0.4975    -1.2568 C.3     
   4 C4             0.7390    -2.0273    -1.2652 C.3     
   5 N5             1.4247    -2.4998    -2.4705 N.am    
   6 C6             1.5637    -3.8219    -2.6922 C.2     
   7 O7             1.1212    -4.6205    -1.8939 O.2     
   8 N8             2.1946    -4.2565    -3.8011 N.am    
   9 C9             2.3351    -5.5818    -4.0254 C.2     
  10 C10            1.1969    -6.3748    -4.1837 C.2     
  11 C11            1.3233    -7.7357    -4.4562 C.2     
  12 C12            2.5907    -8.3038    -4.5811 C.2     
  13 C13            3.7266    -7.5147    -4.4145 C.2     
  14 C14            3.6018    -6.1546    -4.1166 C.2     
  15 C15            4.8072    -5.3634    -3.8559 C.2     
  16 C16            5.0022    -4.1351    -4.2117 C.2     
  17 C17            4.0521    -3.2994    -4.9541 C.2     
  18 C18            2.6832    -3.3690    -4.6942 C.2     
  19 C19            1.8036    -2.5120    -5.3617 C.2     
  20 C20            2.2851    -1.6205    -6.3181 C.2     
  21 C21            3.6481    -1.5832    -6.6105 C.2     
  22 C22            4.5294    -2.4221    -5.9317 C.2     
  23 H23            1.0039     1.9031     0.0027 H       
  24 H24           -0.5459     1.8868    -0.8726 H       
  25 H25           -0.5289     1.8773     0.9072 H       
  26 H26            0.5293    -0.3651     0.8851 H       
  27 H27           -1.0205    -0.3814     0.0098 H       
  28 H28            0.1910    -0.1364    -2.1398 H       
  29 H29            1.7408    -0.1202    -1.2645 H       
  30 H30            1.2661    -2.3884    -0.3821 H       
  31 H31           -0.2836    -2.4046    -1.2575 H       
  32 H32            1.7786    -1.8611    -3.1090 H       
  33 H33            0.2157    -5.9325    -4.0943 H       
  34 H34            0.4417    -8.3490    -4.5700 H       
  35 H35            2.6917    -9.3552    -4.8066 H       
  36 H36            4.7073    -7.9555    -4.5155 H       
  37 H37            5.6063    -5.8504    -3.3168 H       
  38 H38            5.9456    -3.6860    -3.9383 H       
  39 H39            0.7479    -2.5413    -5.1357 H       
  40 H40            1.6035    -0.9593    -6.8326 H       
  41 H41            4.0212    -0.9053    -7.3639 H       
  42 H42            5.5847    -2.3921    -6.1593 H       
@<TRIPOS>BOND
   1    1    2 1
   2    1   23 1
   3    1   24 1
   4    1   25 1
   5    2    3 1
   6    2   26 1
   7    2   27 1
   8    3    4 1
   9    3   28 1
  10    3   29 1
  11    4    5 1
  12    4   30 1
  13    4   31 1
  14    5    6 am
  15    5   32 1
  16    6    7 2
  17    6    8 am
  18    8    9 1
  19    8   18 1
  20    9   10 2
  21    9   14 1
  22   10   11 1
  23   10   33 1
  24   11   12 2
  25   11   34 1
  26   12   13 1
  27   12   35 1
  28   13   14 2
  29   13   36 1
  30   14   15 1
  31   15   16 2
  32   15   37 1
  33   16   17 1
  34   16   38 1
  35   17   18 2
  36   17   22 1
  37   18   19 1
  38   19   20 2
  39   19   39 1
  40   20   21 1
  41   20   40 1
  42   21   22 2
  43   21   41 1
  44   22   42 1

#	End of record

