#	Name: ASD01814186
#	Creating user name:	WinNT
#	Creation time:	15. 06. 2019 19:31

#	Modifying user name:	WinNT
#	Modification time:	15. 06. 2019 19:31

#	Program:	/corina/corina34_cracker 3.40 0067  02.08.2006

@<TRIPOS>MOLECULE
ASD01814186
  58   61    0    0    0
SMALL
NO_CHARGES


@<TRIPOS>ATOM
   1 C1            -0.1416     1.3198    -0.0903 C.ar    
   2 C2            -0.0978    -0.0657    -0.0877 C.ar    
   3 C3             1.1083    -0.7333    -0.0803 C.ar    
   4 C4             2.3012    -0.0166    -0.0754 C.ar    
   5 C5             2.2575     1.3884    -0.0781 C.ar    
   6 C6             1.0286     2.0529    -0.0856 C.ar    
   7 N7             3.5127    -0.6740    -0.0675 N.pl3   
   8 C8             4.6874    -0.0306    -0.0617 C.2     
   9 C9             4.7713     1.3469    -0.0636 C.2     
  10 C10            3.5278     2.1351    -0.0729 C.2     
  11 C11            6.0798     2.0158    -0.0566 C.2     
  12 O12            6.1487     3.3621    -0.0586 O.3     
  13 O13            7.1002     1.3550    -0.0490 O.2     
  14 O14            3.5483     3.3536    -0.0753 O.2     
  15 C15            3.5156    -2.1390    -0.0649 C.3     
  16 C16            3.5246    -2.6516    -1.5065 C.3     
  17 C17            4.8378    -2.2455    -2.1881 C.3     
  18 N18            4.7737    -2.6911    -3.5868 N.am    
  19 C19            4.2971    -3.9798    -3.8657 C.ar    
  20 C20            3.6395    -4.7189    -2.8956 C.ar    
  21 C21            3.4177    -4.1763    -1.5085 C.3     
  22 C22            4.4912    -4.5135    -5.1347 C.ar    
  23 C23            4.0266    -5.7792    -5.4305 C.ar    
  24 C24            3.3678    -6.5155    -4.4626 C.ar    
  25 C25            3.1749    -5.9876    -3.2010 C.ar    
  26 F26            0.9854     3.4032    -0.0882 F       
  27 C27            5.1661    -1.8747    -4.5848 C.2     
  28 O28            5.5528    -0.6144    -4.3109 O.3     
  29 C29            5.9625     0.2085    -5.4349 C.3     
  30 O30            5.1709    -2.2760    -5.7317 O.2     
  31 C31            4.8001     0.3402    -6.4210 C.3     
  32 C32            6.3640     1.5963    -4.9314 C.3     
  33 C33            7.1552    -0.4442    -6.1368 C.3     
  34 H34           -1.0946     1.8278    -0.1006 H       
  35 H35           -1.0194    -0.6288    -0.0911 H       
  36 H36            1.1274    -1.8131    -0.0780 H       
  37 H37            5.5994    -0.6091    -0.0549 H       
  38 H38            7.0316     3.7565    -0.0538 H       
  39 H39            4.4035    -2.4997     0.4545 H       
  40 H40            2.6235    -2.5032     0.4446 H       
  41 H41            2.6830    -2.2239    -2.0513 H       
  42 H42            4.9537    -1.1623    -2.1507 H       
  43 H43            5.6781    -2.7250    -1.6860 H       
  44 H44            4.1685    -4.5909    -0.8358 H       
  45 H45            2.4258    -4.4673    -1.1627 H       
  46 H46            5.0056    -3.9374    -5.8896 H       
  47 H47            4.1769    -6.1939    -6.4163 H       
  48 H48            3.0027    -7.5052    -4.6941 H       
  49 H49            2.6600    -6.5670    -2.4488 H       
  50 H50            3.9505     0.8052    -5.9210 H       
  51 H51            5.1077     0.9579    -7.2648 H       
  52 H52            4.5141    -0.6485    -6.7797 H       
  53 H53            7.1922     1.5025    -4.2290 H       
  54 H54            6.6716     2.2140    -5.7752 H       
  55 H55            5.5144     2.0613    -4.4314 H       
  56 H56            6.8691    -1.4329    -6.4954 H       
  57 H57            7.4627     0.1735    -6.9806 H       
  58 H58            7.9833    -0.5381    -5.4343 H       
@<TRIPOS>BOND
   1    1    2 ar
   2    1    6 ar
   3    1   34 1
   4    2    3 ar
   5    2   35 1
   6    3    4 ar
   7    3   36 1
   8    4    5 ar
   9    4    7 1
  10    5    6 ar
  11    5   10 1
  12    6   26 1
  13    7    8 1
  14    7   15 1
  15    8    9 2
  16    8   37 1
  17    9   10 1
  18    9   11 1
  19   10   14 2
  20   11   12 1
  21   11   13 2
  22   12   38 1
  23   15   16 1
  24   15   39 1
  25   15   40 1
  26   16   17 1
  27   16   21 1
  28   16   41 1
  29   17   18 1
  30   17   42 1
  31   17   43 1
  32   18   19 1
  33   18   27 am
  34   19   20 ar
  35   19   22 ar
  36   20   21 1
  37   20   25 ar
  38   21   44 1
  39   21   45 1
  40   22   23 ar
  41   22   46 1
  42   23   24 ar
  43   23   47 1
  44   24   25 ar
  45   24   48 1
  46   25   49 1
  47   27   28 1
  48   27   30 2
  49   28   29 1
  50   29   31 1
  51   29   32 1
  52   29   33 1
  53   31   50 1
  54   31   51 1
  55   31   52 1
  56   32   53 1
  57   32   54 1
  58   32   55 1
  59   33   56 1
  60   33   57 1
  61   33   58 1

#	End of record

