#	Name: ASD03730285
#	Creating user name:	WinNT
#	Creation time:	15. 06. 2019 20:44

#	Modifying user name:	WinNT
#	Modification time:	15. 06. 2019 20:44

#	Program:	/corina/corina34_cracker 3.40 0067  02.08.2006

@<TRIPOS>MOLECULE
ASD03730285
  70   76    0    0    0
SMALL
NO_CHARGES


@<TRIPOS>ATOM
   1 O1            -0.4710     1.1452     1.3306 O.3     
   2 C2            -0.4037    -0.2911     1.4053 C.3     
   3 O3             0.6745    -0.6301     0.5135 O.3     
   4 C4             1.4962     0.4606     0.5026 C.ar    
   5 C5             0.7902     1.5526     1.0021 C.ar    
   6 C6             2.8118     0.6116     0.1029 C.ar    
   7 C7             3.4372     1.8517     0.1903 C.ar    
   8 C8             2.7177     2.9386     0.6780 C.ar    
   9 C9             1.4086     2.7889     1.0858 C.ar    
  10 O10            4.7149     2.2078    -0.1276 O.3     
  11 C11            3.6411     4.1258     0.6183 C.3     
  12 C12            4.7840     3.6383    -0.2830 C.3     
  13 N13            3.0737     6.3079     0.9903 N.am    
  14 C14            2.9662     5.3434     0.0547 C.2     
  15 C15            4.1337     4.5363     1.9739 C.ar    
  16 C16            4.8275     3.8804     2.9817 C.ar    
  17 C17            5.1459     4.5580     4.1585 C.ar    
  18 C18            4.7680     5.8771     4.3119 C.ar    
  19 C19            4.0782     6.5286     3.3097 C.ar    
  20 C20            3.7539     5.8649     2.1277 C.ar    
  21 O21            2.4300     5.4398    -1.0289 O.2     
  22 C22            2.5395     7.6629     0.8329 C.3     
  23 C23            1.1041     7.7097     1.3605 C.3     
  24 C24            0.5462     9.1249     1.1962 C.3     
  25 C25           -0.8892     9.1717     1.7238 C.3     
  26 C26           -1.4470    10.5868     1.5594 C.3     
  27 C27            5.2287     2.4628     2.8077 C.ar    
  28 C28            6.1274     2.1100     1.8022 C.ar    
  29 C29            6.4992     0.7922     1.6425 C.ar    
  30 C30            5.9785    -0.1847     2.4834 C.ar    
  31 C31            5.0818     0.1649     3.4866 C.ar    
  32 C32            4.7118     1.4823     3.6533 C.ar    
  33 N33            6.3563    -1.5183     2.3201 N.3     
  34 C34            5.6915    -2.3791     3.3092 C.3     
  35 C35            6.0865    -3.8365     3.0568 C.3     
  36 O36            7.5109    -3.9546     3.1066 O.3     
  37 C37            8.1906    -3.1302     2.1559 C.3     
  38 C38            7.8169    -1.6656     2.3992 C.3     
  39 H39           -0.1751    -0.6114     2.4218 H       
  40 H40           -1.3380    -0.7366     1.0634 H       
  41 H41            3.3574    -0.2385    -0.2792 H       
  42 H42            0.8643     3.6382     1.4715 H       
  43 H43            5.7430     4.0199     0.0675 H       
  44 H44            4.6080     3.9240    -1.3200 H       
  45 H45            5.6860     4.0533     4.9459 H       
  46 H46            5.0135     6.4027     5.2229 H       
  47 H47            3.7879     7.5604     3.4421 H       
  48 H48            3.1563     8.3642     1.3950 H       
  49 H49            2.5479     7.9365    -0.2222 H       
  50 H50            0.4874     7.0085     0.7984 H       
  51 H51            1.0957     7.4361     2.4156 H       
  52 H52            1.1630     9.8261     1.7583 H       
  53 H53            0.5546     9.3985     0.1411 H       
  54 H54           -1.5059     8.4704     1.1616 H       
  55 H55           -0.8976     8.8981     2.7788 H       
  56 H56           -0.8303    11.2881     2.1215 H       
  57 H57           -1.4386    10.8604     0.5043 H       
  58 H58           -2.4696    10.6202     1.9353 H       
  59 H59            6.5318     2.8686     1.1485 H       
  60 H60            7.1952     0.5185     0.8634 H       
  61 H61            4.6779    -0.5957     4.1384 H       
  62 H62            4.0188     1.7542     4.4358 H       
  63 H63            6.0010    -2.0867     4.3126 H       
  64 H64            4.6107    -2.2735     3.2157 H       
  65 H65            5.6416    -4.4721     3.8225 H       
  66 H66            5.7298    -4.1454     2.0742 H       
  67 H67            9.2674    -3.2549     2.2701 H       
  68 H68            7.8950    -3.4185     1.1471 H       
  69 H69            8.2875    -1.0392     1.6414 H       
  70 H70            8.1603    -1.3618     3.3881 H       
@<TRIPOS>BOND
   1    1    2 1
   2    1    5 1
   3    2    3 1
   4    2   39 1
   5    2   40 1
   6    3    4 1
   7    4    5 ar
   8    4    6 ar
   9    5    9 ar
  10    6    7 ar
  11    6   41 1
  12    7    8 ar
  13    7   10 1
  14    8    9 ar
  15    8   11 1
  16    9   42 1
  17   10   12 1
  18   11   12 1
  19   11   14 1
  20   11   15 1
  21   12   43 1
  22   12   44 1
  23   13   14 am
  24   13   20 1
  25   13   22 1
  26   14   21 2
  27   15   16 ar
  28   15   20 ar
  29   16   17 ar
  30   16   27 1
  31   17   18 ar
  32   17   45 1
  33   18   19 ar
  34   18   46 1
  35   19   20 ar
  36   19   47 1
  37   22   23 1
  38   22   48 1
  39   22   49 1
  40   23   24 1
  41   23   50 1
  42   23   51 1
  43   24   25 1
  44   24   52 1
  45   24   53 1
  46   25   26 1
  47   25   54 1
  48   25   55 1
  49   26   56 1
  50   26   57 1
  51   26   58 1
  52   27   28 ar
  53   27   32 ar
  54   28   29 ar
  55   28   59 1
  56   29   30 ar
  57   29   60 1
  58   30   31 ar
  59   30   33 1
  60   31   32 ar
  61   31   61 1
  62   32   62 1
  63   33   34 1
  64   33   38 1
  65   34   35 1
  66   34   63 1
  67   34   64 1
  68   35   36 1
  69   35   65 1
  70   35   66 1
  71   36   37 1
  72   37   38 1
  73   37   67 1
  74   37   68 1
  75   38   69 1
  76   38   70 1

#	End of record

