#	Name: ASD03090902
#	Creating user name:	WinNT
#	Creation time:	15. 06. 2019 20:29

#	Modifying user name:	WinNT
#	Modification time:	15. 06. 2019 20:29

#	Program:	/corina/corina34_cracker 3.40 0067  02.08.2006

@<TRIPOS>MOLECULE
ASD03090902
  52   55    0    0    0
SMALL
NO_CHARGES


@<TRIPOS>ATOM
   1 N1            -0.0174     1.3432    -0.0842 N.am    
   2 C2             0.0012    -0.0043    -0.0665 C.2     
   3 O3             1.0649    -0.5993    -0.0762 O.2     
   4 N4            -1.1464    -0.6880    -0.0385 N.2     
   5 S5             0.2595    -3.0387    -0.0299 S.3     
   6 C6            -1.1280    -2.0187    -0.0211 C.2     
   7 N7            -2.1987    -2.8518     0.0077 N.pl3   
   8 C8            -1.9391    -4.1884     0.0217 C.2     
   9 C9            -0.6634    -4.5510     0.0057 C.2     
  10 O10           -7.3907    -0.9282     0.0575 O.3     
  11 C11           -7.5941     0.4021     0.5459 C.3     
  12 C12           -6.5425     1.3161    -0.0975 C.3     
  13 O13           -5.2452     0.8324     0.2671 O.3     
  14 C14           -5.0372    -0.5079     0.1520 C.ar    
  15 C15           -6.1087    -1.3880     0.0493 C.ar    
  16 C16           -3.7397    -0.9949     0.1372 C.ar    
  17 C17           -3.5113    -2.3592     0.0230 C.ar    
  18 C18           -4.5831    -3.2356    -0.0767 C.ar    
  19 C19           -5.8767    -2.7506    -0.0635 C.ar    
  20 F20           -6.6821     1.2892    -1.4893 F       
  21 F21           -6.7062     2.6249     0.3687 F       
  22 F22           -8.8764     0.8411     0.1992 F       
  23 F23           -7.4482     0.4214     1.9372 F       
  24 C24           -0.1141    -5.9543     0.0163 C.3     
  25 C25            1.2409     2.0928    -0.1150 C.3     
  26 C26            2.0274     1.7175    -1.3725 C.3     
  27 C27            0.9451     3.5704    -0.1297 C.ar    
  28 C28           -0.1971     4.0528     0.4815 C.ar    
  29 C29           -0.4684     5.4082     0.4679 C.ar    
  30 C30            0.4027     6.2812    -0.1565 C.ar    
  31 C31            1.5454     5.7989    -0.7669 C.ar    
  32 C32            1.8189     4.4440    -0.7495 C.ar    
  33 C33            2.0688     1.7507     1.1254 C.3     
  34 H34           -0.8640     1.8166    -0.0805 H       
  35 H35           -2.7344    -4.9188     0.0446 H       
  36 H36           -2.9061    -0.3127     0.2155 H       
  37 H37           -4.4057    -4.2973    -0.1647 H       
  38 H38           -6.7091    -3.4342    -0.1409 H       
  39 H39            0.9752    -5.9182    -0.0012 H       
  40 H40           -0.4461    -6.4677     0.9186 H       
  41 H41           -0.4740    -6.4919    -0.8610 H       
  42 H42            1.4376     1.9612    -2.2562 H       
  43 H43            2.9637     2.2752    -1.3954 H       
  44 H44            2.2414     0.6488    -1.3618 H       
  45 H45           -0.8776     3.3707     0.9693 H       
  46 H46           -1.3611     5.7850     0.9448 H       
  47 H47            0.1904     7.3401    -0.1677 H       
  48 H48            2.2258     6.4810    -1.2550 H       
  49 H49            2.7135     4.0676    -1.2233 H       
  50 H50            2.2827     0.6820     1.1361 H       
  51 H51            3.0050     2.3085     1.1025 H       
  52 H52            1.5084     2.0181     2.0213 H       
@<TRIPOS>BOND
   1    1    2 am
   2    1   25 1
   3    1   34 1
   4    2    3 2
   5    2    4 1
   6    4    6 2
   7    5    6 1
   8    5    9 1
   9    6    7 1
  10    7    8 1
  11    7   17 1
  12    8    9 2
  13    8   35 1
  14    9   24 1
  15   10   11 1
  16   10   15 1
  17   11   12 1
  18   11   22 1
  19   11   23 1
  20   12   13 1
  21   12   20 1
  22   12   21 1
  23   13   14 1
  24   14   15 ar
  25   14   16 ar
  26   15   19 ar
  27   16   17 ar
  28   16   36 1
  29   17   18 ar
  30   18   19 ar
  31   18   37 1
  32   19   38 1
  33   24   39 1
  34   24   40 1
  35   24   41 1
  36   25   26 1
  37   25   27 1
  38   25   33 1
  39   26   42 1
  40   26   43 1
  41   26   44 1
  42   27   28 ar
  43   27   32 ar
  44   28   29 ar
  45   28   45 1
  46   29   30 ar
  47   29   46 1
  48   30   31 ar
  49   30   47 1
  50   31   32 ar
  51   31   48 1
  52   32   49 1
  53   33   50 1
  54   33   51 1
  55   33   52 1

#	End of record

