#	Name: ASD08070169
#	Creating user name:	WinNT
#	Creation time:	15. 06. 2019 21:14

#	Modifying user name:	WinNT
#	Modification time:	15. 06. 2019 21:14

#	Program:	/corina/corina34_cracker 3.40 0067  02.08.2006

@<TRIPOS>MOLECULE
ASD08070169
  34   34    0    0    0
SMALL
NO_CHARGES


@<TRIPOS>ATOM
   1 C1            -0.0167     1.3805     0.0096 C.ar    
   2 C2             0.0021    -0.0041     0.0020 C.ar    
   3 C3            -1.1849    -0.7157     0.0100 C.ar    
   4 C4            -2.4055    -0.0329     0.0258 C.ar    
   5 C5            -2.4163     1.3658     0.0334 C.ar    
   6 C6            -1.2211     2.0635     0.0306 C.ar    
   7 C7            -3.6754    -0.7843     0.0339 C.2     
   8 N8            -4.2667    -1.1208    -1.1296 N.am    
   9 F9            -3.5905     2.0338     0.0486 F       
  10 O10           -4.1883    -1.0998     1.0901 O.2     
  11 C11           -6.6969    -0.8904    -0.9788 C.3     
  12 C12           -5.5275    -1.8668    -1.1215 C.3     
  13 C13           -4.4994    -3.6200    -2.5747 C.3     
  14 C14           -5.6688    -2.6437    -2.4320 C.3     
  15 F15           -1.2295     3.4145     0.0379 F       
  16 C16            1.2803     2.1479     0.0014 C.3     
  17 F17            1.1820    -0.6619    -0.0137 F       
  18 F18           -1.1646    -2.0666     0.0021 F       
  19 C19           -6.9855    -3.4228    -2.4236 C.3     
  20 H20           -3.8575    -0.8690    -1.9722 H       
  21 H21           -7.6349    -1.4455    -0.9729 H       
  22 H22           -6.5962    -0.3370    -0.0452 H       
  23 H23           -6.6925    -0.1934    -1.8168 H       
  24 H24           -5.5319    -2.5639    -0.2836 H       
  25 H25           -4.6001    -4.1734    -3.5083 H       
  26 H26           -3.5614    -3.0649    -2.5807 H       
  27 H27           -4.5038    -4.3171    -1.7368 H       
  28 H28           -5.6644    -1.9466    -3.2699 H       
  29 H29            1.5831     2.3384    -1.0282 H       
  30 H30            1.1447     3.0961     0.5216 H       
  31 H31            2.0510     1.5642     0.5047 H       
  32 H32           -6.9899    -4.1199    -1.5857 H       
  33 H33           -7.8186    -2.7272    -2.3220 H       
  34 H34           -7.0862    -3.9762    -3.3572 H       
@<TRIPOS>BOND
   1    1    2 ar
   2    1   16 1
   3    1    6 ar
   4    2    3 ar
   5    2   17 1
   6    3    4 ar
   7    3   18 1
   8    4    5 ar
   9    4    7 1
  10    5    6 ar
  11    5    9 1
  12    6   15 1
  13    7    8 am
  14    7   10 2
  15    8   12 1
  16    8   20 1
  17   11   12 1
  18   11   21 1
  19   11   22 1
  20   11   23 1
  21   12   14 1
  22   12   24 1
  23   13   14 1
  24   13   25 1
  25   13   26 1
  26   13   27 1
  27   14   19 1
  28   14   28 1
  29   16   29 1
  30   16   30 1
  31   16   31 1
  32   19   32 1
  33   19   33 1
  34   19   34 1

#	End of record

