#	Name: ASD03331664
#	Creating user name:	WinNT
#	Creation time:	15. 06. 2019 20:39

#	Modifying user name:	WinNT
#	Modification time:	15. 06. 2019 20:39

#	Program:	/corina/corina34_cracker 3.40 0067  02.08.2006

@<TRIPOS>MOLECULE
ASD03331664
  70   74    0    0    0
SMALL
NO_CHARGES


@<TRIPOS>ATOM
   1 C1             0.7692     0.7889     0.3513 C.3     
   2 N2             0.7266    -0.6763     0.4585 N.3     
   3 C3             0.9022    -1.3117    -0.8599 C.3     
   4 C4             2.1135    -0.6992    -1.5145 C.2     
   5 N5             2.6923     0.4572    -1.0972 N.pl3   
   6 C6             2.1995     1.2452     0.0362 C.3     
   7 C7             2.8261    -1.1442    -2.5795 C.2     
   8 N8             3.8285    -0.2630    -2.7997 N.2     
   9 C9             3.7532     0.7017    -1.9103 C.2     
  10 C10            4.6691     1.8595    -1.8115 C.ar    
  11 C11            2.5567    -2.3671    -3.3565 C.2     
  12 O12            1.6194    -3.0826    -3.0588 O.2     
  13 C13            5.5198     2.1722    -2.8721 C.ar    
  14 N14            3.3490    -2.6925    -4.3971 N.am    
  15 C15           -0.5200    -1.1215     1.0956 C.3     
  16 C16            6.3712     3.2535    -2.7739 C.ar    
  17 C17            6.3829     4.0265    -1.6267 C.ar    
  18 C18            5.5422     3.7213    -0.5713 C.ar    
  19 C19            4.6816     2.6464    -0.6595 C.ar    
  20 C20           -1.7102    -0.7248     0.2199 C.3     
  21 C21           -2.9023    -1.6291     0.5394 C.3     
  22 C22           -2.0858     0.7318     0.4992 C.3     
  23 C23            3.0813    -3.9082    -5.1695 C.3     
  24 C24            2.1754    -3.5841    -6.3966 C.3     
  25 C25            2.8478    -2.3442    -7.0614 C.3     
  26 C26            4.1564    -2.8916    -7.6755 C.3     
  27 C27            4.3900    -4.4557    -5.7836 C.3     
  28 C28            4.1516    -4.4107    -7.3239 C.3     
  29 C29            2.6139    -4.7185    -7.3886 C.3     
  30 C30            5.5727    -3.5639    -5.4007 C.3     
  31 C31            4.6341    -5.8942    -5.3234 C.3     
  32 C32            0.6781    -3.4585    -6.1080 C.3     
  33 H33            0.1012     1.1134    -0.4465 H       
  34 H34            0.4474     1.2307     1.2944 H       
  35 H35            1.0535    -2.3839    -0.7350 H       
  36 H36            0.0207    -1.1326    -1.4755 H       
  37 H37            2.1988     2.3036    -0.2245 H       
  38 H38            2.8379     1.0801     0.9041 H       
  39 H39            5.5121     1.5691    -3.7680 H       
  40 H40            4.0966    -2.1218    -4.6345 H       
  41 H41           -0.5009    -2.2049     1.2137 H       
  42 H42           -0.6160    -0.6510     2.0741 H       
  43 H43            7.0302     3.4966    -3.5943 H       
  44 H44            7.0515     4.8716    -1.5545 H       
  45 H45            5.5565     4.3282     0.3220 H       
  46 H46            4.0257     2.4091     0.1650 H       
  47 H47           -1.4414    -0.8357    -0.8306 H       
  48 H48           -3.1711    -1.5183     1.5899 H       
  49 H49           -3.7502    -1.3465    -0.0844 H       
  50 H50           -2.6347    -2.6669     0.3404 H       
  51 H51           -2.2091     0.8759     1.5726 H       
  52 H52           -1.2957     1.3874     0.1330 H       
  53 H53           -3.0202     0.9700    -0.0090 H       
  54 H54            2.6109    -4.6624    -4.5386 H       
  55 H55            2.2044    -1.9352    -7.8405 H       
  56 H56            3.0686    -1.5842    -6.3119 H       
  57 H57            4.1565    -2.7518    -8.7565 H       
  58 H58            5.0206    -2.4008    -7.2280 H       
  59 H59            4.8059    -5.0413    -7.9259 H       
  60 H60            2.3792    -5.7111    -7.0040 H       
  61 H61            2.2082    -4.5663    -8.3888 H       
  62 H62            5.7425    -3.6272    -4.3259 H       
  63 H63            6.4654    -3.8973    -5.9298 H       
  64 H64            5.3529    -2.5317    -5.6736 H       
  65 H65            3.8026    -6.5234    -5.6411 H       
  66 H66            5.5594    -6.2648    -5.7647 H       
  67 H67            4.7143    -5.9194    -4.2367 H       
  68 H68            0.5128    -2.6565    -5.3886 H       
  69 H69            0.1476    -3.2322    -7.0329 H       
  70 H70            0.3074    -4.3975    -5.6969 H       
@<TRIPOS>BOND
   1    1    2 1
   2    1    6 1
   3    1   33 1
   4    1   34 1
   5    2    3 1
   6    2   15 1
   7    3    4 1
   8    3   35 1
   9    3   36 1
  10    4    5 1
  11    4    7 2
  12    5    6 1
  13    5    9 1
  14    6   37 1
  15    6   38 1
  16    7    8 1
  17    7   11 1
  18    8    9 2
  19    9   10 1
  20   10   13 ar
  21   10   19 ar
  22   11   12 2
  23   11   14 am
  24   13   16 ar
  25   13   39 1
  26   14   23 1
  27   14   40 1
  28   15   20 1
  29   15   41 1
  30   15   42 1
  31   16   17 ar
  32   16   43 1
  33   17   18 ar
  34   17   44 1
  35   18   19 ar
  36   18   45 1
  37   19   46 1
  38   20   22 1
  39   20   21 1
  40   20   47 1
  41   21   48 1
  42   21   49 1
  43   21   50 1
  44   22   51 1
  45   22   52 1
  46   22   53 1
  47   23   24 1
  48   23   27 1
  49   23   54 1
  50   24   25 1
  51   24   29 1
  52   24   32 1
  53   25   26 1
  54   25   55 1
  55   25   56 1
  56   26   28 1
  57   26   57 1
  58   26   58 1
  59   27   28 1
  60   27   30 1
  61   27   31 1
  62   28   29 1
  63   28   59 1
  64   29   60 1
  65   29   61 1
  66   30   62 1
  67   30   63 1
  68   30   64 1
  69   31   65 1
  70   31   66 1
  71   31   67 1
  72   32   68 1
  73   32   69 1
  74   32   70 1

#	End of record

