#	Name: ASD01916749
#	Creating user name:	WinNT
#	Creation time:	15. 06. 2019 20:07

#	Modifying user name:	WinNT
#	Modification time:	15. 06. 2019 20:07

#	Program:	/corina/corina34_cracker 3.40 0067  02.08.2006

@<TRIPOS>MOLECULE
ASD01916749
  70   74    0    0    0
SMALL
NO_CHARGES


@<TRIPOS>ATOM
   1 C1            -0.0245     1.3184     0.0994 C.2     
   2 N2             0.0080     0.0301    -0.1650 N.2     
   3 N3            -1.3231    -0.4170    -0.1829 N.pl3   
   4 C4            -2.0935     0.6643     0.0798 C.2     
   5 N5            -1.2978     1.6987     0.2524 N.2     
   6 C6             1.1600     2.2050     0.2154 C.ar    
   7 C7             0.9942     3.5588     0.5005 C.ar    
   8 C8             2.4414     1.6847     0.0454 C.ar    
   9 C9             3.5399     2.5124     0.1546 C.ar    
  10 C10            3.3703     3.8590     0.4329 C.ar    
  11 C11           -1.7862    -1.7836    -0.4360 C.3     
  12 C12           -1.8174    -2.5516     0.8602 C.2     
  13 N13           -2.2141    -3.8396     0.8710 N.am    
  14 O14           -1.4853    -2.0107     1.8937 O.2     
  15 C15           -2.2519    -4.6074     2.1249 C.3     
  16 C16           -3.6321    -5.2605     2.2544 C.3     
  17 N17           -3.9181    -6.0379     1.0412 N.3     
  18 C18           -3.9864    -5.1715    -0.1431 C.3     
  19 C19           -2.6266    -4.5129    -0.3699 C.3     
  20 C20           -5.0837    -6.7738     1.1861 C.ar    
  21 C21           -5.5410    -7.5848     0.1502 C.ar    
  22 C22           -6.7142    -8.3021     0.3449 C.ar    
  23 N23           -7.3552    -8.1904     1.5052 N.ar    
  24 C24           -6.8917    -7.4128     2.4623 C.ar    
  25 N25           -5.7799    -6.7203     2.3195 N.ar    
  26 C26           -3.5706     0.6799     0.1642 C.ar    
  27 C27            2.0982     4.3794     0.6079 C.ar    
  28 C28           -4.2716    -0.5063     0.3840 C.ar    
  29 C29           -5.6484    -0.4864     0.4618 C.ar    
  30 C30           -6.3356     0.7089     0.3216 C.ar    
  31 C31           -5.6439     1.8898     0.1031 C.ar    
  32 C32           -4.2667     1.8815     0.0299 C.ar    
  33 F33            4.4486     4.6659     0.5395 F       
  34 F34           -7.6844     0.7229     0.3977 F       
  35 O35           -7.1995    -9.1045    -0.6339 O.3     
  36 C36           -8.4114    -9.8082    -0.3545 C.3     
  37 C37           -8.8002   -10.6558    -1.5675 C.3     
  38 N38           -7.7868   -11.6973    -1.7823 N.3     
  39 C39           -7.7772   -12.6594    -0.6722 C.3     
  40 C40           -7.9955   -12.3780    -3.0672 C.3     
  41 H41            0.0029     3.9653     0.6367 H       
  42 H42            2.5746     0.6351    -0.1712 H       
  43 H43            4.5335     2.1099     0.0233 H       
  44 H44           -2.7878    -1.7542    -0.8651 H       
  45 H45           -1.1067    -2.2743    -1.1329 H       
  46 H46           -1.4821    -5.3788     2.1052 H       
  47 H47           -2.0826    -3.9387     2.9689 H       
  48 H48           -3.6417    -5.9218     3.1208 H       
  49 H49           -4.3903    -4.4872     2.3781 H       
  50 H50           -4.2530    -5.7682    -1.0154 H       
  51 H51           -4.7397    -4.3994     0.0140 H       
  52 H52           -2.7030    -3.7834    -1.1762 H       
  53 H53           -1.8901    -5.2734    -0.6290 H       
  54 H54           -4.9975    -7.6537    -0.7805 H       
  55 H55           -7.4363    -7.3444     3.3925 H       
  56 H56            1.9703     5.4297     0.8244 H       
  57 H57           -3.7370    -1.4384     0.4927 H       
  58 H58           -6.1920    -1.4040     0.6319 H       
  59 H59           -6.1840     2.8186    -0.0059 H       
  60 H60           -3.7286     2.8023    -0.1404 H       
  61 H61           -8.2644   -10.4563     0.5095 H       
  62 H62           -9.2059    -9.0931    -0.1413 H       
  63 H63           -9.7689   -11.1226    -1.3891 H       
  64 H64           -8.8606   -10.0199    -2.4508 H       
  65 H65           -8.7553   -13.1342    -0.5946 H       
  66 H66           -7.0180   -13.4194    -0.8567 H       
  67 H67           -7.5513   -12.1385     0.2582 H       
  68 H68           -7.9283   -11.6525    -3.8779 H       
  69 H69           -7.2317   -13.1440    -3.2009 H       
  70 H70           -8.9815   -12.8426    -3.0762 H       
@<TRIPOS>BOND
   1    1    2 2
   2    1    6 1
   3    1    5 1
   4    2    3 1
   5    3    4 1
   6    3   11 1
   7    4    5 2
   8    4   26 1
   9    6    7 ar
  10    6    8 ar
  11    7   27 ar
  12    7   41 1
  13    8    9 ar
  14    8   42 1
  15    9   10 ar
  16    9   43 1
  17   10   27 ar
  18   10   33 1
  19   11   12 1
  20   11   44 1
  21   11   45 1
  22   12   13 am
  23   12   14 2
  24   13   15 1
  25   13   19 1
  26   15   16 1
  27   15   46 1
  28   15   47 1
  29   16   17 1
  30   16   48 1
  31   16   49 1
  32   17   18 1
  33   17   20 1
  34   18   19 1
  35   18   50 1
  36   18   51 1
  37   19   52 1
  38   19   53 1
  39   20   21 ar
  40   20   25 ar
  41   21   22 ar
  42   21   54 1
  43   22   23 ar
  44   22   35 1
  45   23   24 ar
  46   24   25 ar
  47   24   55 1
  48   26   28 ar
  49   26   32 ar
  50   27   56 1
  51   28   29 ar
  52   28   57 1
  53   29   30 ar
  54   29   58 1
  55   30   31 ar
  56   30   34 1
  57   31   32 ar
  58   31   59 1
  59   32   60 1
  60   35   36 1
  61   36   37 1
  62   36   61 1
  63   36   62 1
  64   37   38 1
  65   37   63 1
  66   37   64 1
  67   38   39 1
  68   38   40 1
  69   39   65 1
  70   39   66 1
  71   39   67 1
  72   40   68 1
  73   40   69 1
  74   40   70 1

#	End of record

