#	Name: ASD01915269
#	Creating user name:	WinNT
#	Creation time:	15. 06. 2019 20:05

#	Modifying user name:	WinNT
#	Modification time:	15. 06. 2019 20:05

#	Program:	/corina/corina34_cracker 3.40 0067  02.08.2006

@<TRIPOS>MOLECULE
ASD01915269
  46   48    0    0    0
SMALL
NO_CHARGES


@<TRIPOS>ATOM
   1 C1             0.0797     1.3744     0.1597 C.ar    
   2 C2             0.0916    -0.0119     0.1378 C.ar    
   3 C3            -1.1084    -0.6964     0.1781 C.ar    
   4 N4            -2.2542    -0.0462     0.2362 N.ar    
   5 C5            -2.3035     1.2714     0.2586 C.ar    
   6 C6            -1.1440     2.0228     0.2268 C.ar    
   7 C7             1.3665     2.1576     0.1177 C.3     
   8 C8             1.7415     2.4448    -1.3375 C.3     
   9 C9             3.0479     3.2400    -1.3801 C.3     
  10 C10            3.4173     3.5230    -2.8135 C.2     
  11 N11            4.5385     4.2154    -3.0964 N.am    
  12 C12            4.9174     4.5025    -4.4882 C.3     
  13 C13            5.1980     6.0035    -4.6166 C.3     
  14 N14            6.1895     6.4011    -3.6082 N.3     
  15 C15            5.6764     6.1971    -2.2470 C.3     
  16 C16            5.4122     4.7093    -2.0212 C.3     
  17 C17            6.5936     7.7261    -3.7981 C.ar    
  18 C18            6.2685     8.6939    -2.8574 C.ar    
  19 C19            6.6690    10.0025    -3.0474 C.ar    
  20 C20            7.3931    10.3495    -4.1740 C.ar    
  21 C21            7.7187     9.3873    -5.1142 C.ar    
  22 C22            7.3266     8.0758    -4.9263 C.ar    
  23 Cl23           7.8938    11.9950    -4.4092 Cl      
  24 Cl24           7.7351     6.8692    -6.1057 Cl      
  25 O25            2.7057     3.1275    -3.7124 O.2     
  26 H26            1.0267    -0.5500     0.0896 H       
  27 H27           -1.1077    -1.7763     0.1615 H       
  28 H28           -3.2608     1.7690     0.3060 H       
  29 H29           -1.1908     3.1016     0.2457 H       
  30 H30            1.2366     3.0988     0.6520 H       
  31 H31            2.1600     1.5783     0.5899 H       
  32 H32            1.8714     1.5037    -1.8718 H       
  33 H33            0.9480     3.0241    -1.8097 H       
  34 H34            2.9180     4.1812    -0.8458 H       
  35 H35            3.8414     2.6607    -0.9079 H       
  36 H36            5.8138     3.9390    -4.7473 H       
  37 H37            4.1012     4.2242    -5.1548 H       
  38 H38            5.5863     6.2170    -5.6125 H       
  39 H39            4.2748     6.5609    -4.4585 H       
  40 H40            6.4116     6.5511    -1.5243 H       
  41 H41            4.7465     6.7518    -2.1219 H       
  42 H42            4.9252     4.5661    -1.0566 H       
  43 H43            6.3549     4.1625    -2.0434 H       
  44 H44            5.7026     8.4242    -1.9780 H       
  45 H45            6.4161    10.7556    -2.3157 H       
  46 H46            8.2834     9.6611    -5.9931 H       
@<TRIPOS>BOND
   1    1    2 ar
   2    1    7 1
   3    1    6 ar
   4    2    3 ar
   5    2   26 1
   6    3    4 ar
   7    3   27 1
   8    4    5 ar
   9    5    6 ar
  10    5   28 1
  11    6   29 1
  12    7    8 1
  13    7   30 1
  14    7   31 1
  15    8    9 1
  16    8   32 1
  17    8   33 1
  18    9   10 1
  19    9   34 1
  20    9   35 1
  21   10   11 am
  22   10   25 2
  23   11   12 1
  24   11   16 1
  25   12   13 1
  26   12   36 1
  27   12   37 1
  28   13   14 1
  29   13   38 1
  30   13   39 1
  31   14   15 1
  32   14   17 1
  33   15   16 1
  34   15   40 1
  35   15   41 1
  36   16   42 1
  37   16   43 1
  38   17   18 ar
  39   17   22 ar
  40   18   19 ar
  41   18   44 1
  42   19   20 ar
  43   19   45 1
  44   20   21 ar
  45   20   23 1
  46   21   22 ar
  47   21   46 1
  48   22   24 1

#	End of record

