#	Name: ASD01440132
#	Creating user name:	WinNT
#	Creation time:	15. 06. 2019 19:21

#	Modifying user name:	WinNT
#	Modification time:	15. 06. 2019 19:21

#	Program:	/corina/corina34_cracker 3.40 0067  02.08.2006

@<TRIPOS>MOLECULE
ASD01440132
  40   42    0    0    0
SMALL
NO_CHARGES


@<TRIPOS>ATOM
   1 C1             0.2272     1.4667     0.1032 C.ar    
   2 C2             0.2022     0.0929     0.1863 C.ar    
   3 C3             1.3920    -0.6227     0.2620 C.ar    
   4 C4             2.6115     0.0451     0.2541 C.ar    
   5 C5             2.6457     1.4187     0.1708 C.ar    
   6 C6             1.4515     2.1425     0.0945 C.ar    
   7 C7             1.4832     3.6144     0.0051 C.2     
   8 O8             0.4508     4.2361    -0.1568 O.2     
   9 C9             2.7692     4.3334     0.1123 C.ar    
  10 O10            1.3628    -1.9768     0.3442 O.3     
  11 C11            2.6213    -2.6495     0.4191 C.3     
  12 C12            2.3919    -4.1365     0.5041 C.2     
  13 N13            3.4424    -4.9770     0.5837 N.am    
  14 O14            1.2618    -4.5769     0.5009 O.2     
  15 C15            3.3765     4.8597    -1.0305 C.ar    
  16 C16            4.5768     5.5295    -0.9232 C.ar    
  17 C17            5.1812     5.6812     0.3130 C.ar    
  18 C18            4.5866     5.1632     1.4492 C.ar    
  19 C19            3.3814     4.4953     1.3581 C.ar    
  20 Br20           2.5658     3.7945     2.9136 Br      
  21 C21            3.2292    -6.3488     0.7627 C.ar    
  22 C22            2.1332    -6.9830     0.1838 C.ar    
  23 N23            1.9674    -8.2810     0.3765 N.ar    
  24 C24            2.8221    -8.9716     1.1042 C.ar    
  25 N25            3.8715    -8.4083     1.6686 N.ar    
  26 C26            4.1109    -7.1160     1.5195 C.ar    
  27 H27           -0.6972     2.0216     0.0403 H       
  28 H28           -0.7428    -0.4298     0.1930 H       
  29 H29            3.5332    -0.5146     0.3138 H       
  30 H30            3.5933     1.9367     0.1651 H       
  31 H31            3.2081    -2.4227    -0.4711 H       
  32 H32            3.1606    -2.3139     1.3049 H       
  33 H33            4.3463    -4.6313     0.5170 H       
  34 H34            2.9069     4.7417    -1.9959 H       
  35 H35            5.0471     5.9367    -1.8061 H       
  36 H36            6.1218     6.2063     0.3905 H       
  37 H37            5.0639     5.2849     2.4104 H       
  38 H38            1.4286    -6.4232    -0.4133 H       
  39 H39            2.6576   -10.0301     1.2423 H       
  40 H40            4.9753    -6.6620     1.9810 H       
@<TRIPOS>BOND
   1    1    2 ar
   2    1    6 ar
   3    1   27 1
   4    2    3 ar
   5    2   28 1
   6    3    4 ar
   7    3   10 1
   8    4    5 ar
   9    4   29 1
  10    5    6 ar
  11    5   30 1
  12    6    7 1
  13    7    8 2
  14    7    9 1
  15    9   15 ar
  16    9   19 ar
  17   10   11 1
  18   11   12 1
  19   11   31 1
  20   11   32 1
  21   12   13 am
  22   12   14 2
  23   13   21 1
  24   13   33 1
  25   15   16 ar
  26   15   34 1
  27   16   17 ar
  28   16   35 1
  29   17   18 ar
  30   17   36 1
  31   18   19 ar
  32   18   37 1
  33   19   20 1
  34   21   22 ar
  35   21   26 ar
  36   22   23 ar
  37   22   38 1
  38   23   24 ar
  39   24   25 ar
  40   24   39 1
  41   25   26 ar
  42   26   40 1

#	End of record

