#	Name: ASD01000120
#	Creating user name:	WinNT
#	Creation time:	15. 06. 2019 18:54

#	Modifying user name:	WinNT
#	Modification time:	15. 06. 2019 18:54

#	Program:	/corina/corina34_cracker 3.40 0067  02.08.2006

@<TRIPOS>MOLECULE
ASD01000120
  40   44    0    0    0
SMALL
NO_CHARGES


@<TRIPOS>ATOM
   1 C1            -0.2369     1.0877    -0.0938 C.3     
   2 C2            -0.0289    -0.3957     0.0816 C.2     
   3 C3             1.1154    -0.9925     0.4765 C.2     
   4 C4             2.3888    -0.2360     0.7999 C.3     
   5 N5             2.0386     1.1895     0.7725 N.am    
   6 C6             1.1246     1.7797    -0.2304 C.3     
   7 C7            -0.9996    -1.4535    -0.1327 C.ar    
   8 C8            -0.3321    -2.6682     0.1677 C.ar    
   9 N9             0.9439    -2.3498     0.5336 N.pl3   
  10 C10           -2.3358    -1.4402    -0.5426 C.ar    
  11 C11           -2.9664    -2.6566    -0.6392 C.ar    
  12 C12           -2.3198    -3.8459    -0.3470 C.ar    
  13 C13           -0.9973    -3.8875     0.0608 C.ar    
  14 C14            2.4258     2.1747     1.5846 C.2     
  15 N15            1.8273     3.3377     1.2897 N.am    
  16 C16            1.0104     3.2211     0.2228 C.2     
  17 C17            3.4428    -0.5300    -0.2362 C.ar    
  18 C18            4.5951    -1.2042     0.1228 C.ar    
  19 C19            5.5644    -1.4752    -0.8256 C.ar    
  20 C20            5.3834    -1.0725    -2.1344 C.ar    
  21 C21            4.2275    -0.3961    -2.4973 C.ar    
  22 C22            3.2542    -0.1305    -1.5453 C.ar    
  23 O23            4.0473     0.0015    -3.7843 O.3     
  24 *24            2.0401     4.6117     2.0524 Du      
  25 O25            0.3260     4.0908    -0.2722 O.2     
  26 O26            3.2274     2.0341     2.4873 O.2     
  27 H27           -0.8282     1.2683    -0.9915 H       
  28 H28           -0.7620     1.4864     0.7741 H       
  29 H29            2.7482    -0.5142     1.7907 H       
  30 H30            1.5213     1.6890    -1.2416 H       
  31 H31            1.6260    -2.9884     0.7941 H       
  32 H32           -2.8480    -0.5175    -0.7720 H       
  33 H33           -3.9995    -2.6864    -0.9527 H       
  34 H34           -2.8661    -4.7729    -0.4403 H       
  35 H35           -0.5044    -4.8218     0.2855 H       
  36 H36            4.7387    -1.5196     1.1457 H       
  37 H37            6.4639    -2.0017    -0.5426 H       
  38 H38            6.1410    -1.2837    -2.8745 H       
  39 H39            2.3537     0.3959    -1.8254 H       
  40 H40            3.6020    -0.6531    -4.3395 H       
@<TRIPOS>BOND
   1    1    2 1
   2    1    6 1
   3    1   27 1
   4    1   28 1
   5    2    3 2
   6    2    7 1
   7    3    4 1
   8    3    9 1
   9    4    5 1
  10    4   17 1
  11    4   29 1
  12    5    6 1
  13    5   14 am
  14    6   16 1
  15    6   30 1
  16    7    8 ar
  17    7   10 ar
  18    8    9 1
  19    8   13 ar
  20    9   31 1
  21   10   11 ar
  22   10   32 1
  23   11   12 ar
  24   11   33 1
  25   12   13 ar
  26   12   34 1
  27   13   35 1
  28   14   15 am
  29   14   26 2
  30   15   16 am
  31   15   24 1
  32   16   25 2
  33   17   18 ar
  34   17   22 ar
  35   18   19 ar
  36   18   36 1
  37   19   20 ar
  38   19   37 1
  39   20   21 ar
  40   20   38 1
  41   21   22 ar
  42   21   23 1
  43   22   39 1
  44   23   40 1

#	End of record

