#	Name: ASD01410352
#	Creating user name:	WinNT
#	Creation time:	15. 06. 2019 19:17

#	Modifying user name:	WinNT
#	Modification time:	15. 06. 2019 19:17

#	Program:	/corina/corina34_cracker 3.40 0067  02.08.2006

@<TRIPOS>MOLECULE
ASD01410352
  62   66    0    0    0
SMALL
NO_CHARGES


@<TRIPOS>ATOM
   1 N1            -0.0166     1.3710     0.0096 N.pl3   
   2 C2             0.0021    -0.0041     0.0020 C.2     
   3 C3            -1.2724    -0.4705     0.0117 C.2     
   4 C4            -2.1420     0.6464     0.0260 C.ar    
   5 C5            -1.3279     1.7973     0.0304 C.ar    
   6 C6            -3.5384     0.7766     0.0400 C.ar    
   7 C7            -4.1072     2.0129     0.0520 C.ar    
   8 C8            -3.3052     3.1642     0.0505 C.ar    
   9 C9            -1.9161     3.0529     0.0434 C.ar    
  10 C10           -2.5094    -2.2178     1.2630 C.3     
  11 C11           -2.9310    -3.6886     1.2587 C.3     
  12 C12           -3.7770    -3.9729     0.0159 C.3     
  13 C13           -2.9552    -3.6743    -1.2397 C.3     
  14 C14           -2.5336    -2.2035    -1.2353 C.3     
  15 C15           -1.6877    -1.9192     0.0074 C.3     
  16 C16            1.1628     2.2400     0.0030 C.3     
  17 C17            1.5536     2.5456    -1.4200 C.2     
  18 O18            0.9104     2.0830    -2.3382 O.2     
  19 C19            3.0188     3.6454    -3.0532 C.3     
  20 N20            2.6180     3.3330    -1.6722 N.am    
  21 C21            3.4134     3.9060    -0.5748 C.3     
  22 C22            3.1844     5.1644    -3.1767 C.3     
  23 C23            3.5597     5.4123    -0.8190 C.3     
  24 O24            4.0553     5.6286    -2.1424 O.3     
  25 C25            3.4459    -2.4123    -0.0312 C.ar    
  26 C26            2.2365    -2.8584     0.4698 C.ar    
  27 N27            1.1740    -2.0800     0.4662 N.ar    
  28 C28            1.2195    -0.8427    -0.0146 C.ar    
  29 C29            2.4075    -0.3284    -0.5356 C.ar    
  30 C30            3.5382    -1.1256    -0.5440 C.ar    
  31 C31           -3.9348     4.4975     0.0636 C.2     
  32 O32           -3.2428     5.4962     0.0624 O.2     
  33 O33           -5.2778     4.6083     0.0770 O.3     
  34 H34           -4.1627    -0.1047     0.0409 H       
  35 H35           -5.1829     2.1084     0.0624 H       
  36 H36           -1.3007     3.9404     0.0423 H       
  37 H37           -3.3971    -1.5854     1.2752 H       
  38 H38           -1.9068    -2.0152     2.1483 H       
  39 H39           -2.0434    -4.3210     1.2465 H       
  40 H40           -3.5165    -3.9013     2.1531 H       
  41 H41           -4.0773    -5.0207     0.0128 H       
  42 H42           -4.6646    -3.3405     0.0281 H       
  43 H43           -2.0675    -4.3067    -1.2519 H       
  44 H44           -3.5579    -3.8769    -2.1250 H       
  45 H45           -1.9481    -1.9908    -2.1298 H       
  46 H46           -3.4213    -1.5711    -1.2231 H       
  47 H47           -0.8000    -2.5516    -0.0048 H       
  48 H48            0.9323     3.1692     0.5240 H       
  49 H49            1.9881     1.7363     0.5063 H       
  50 H50            3.9643     3.1533    -3.2813 H       
  51 H51            2.2496     3.3025    -3.7452 H       
  52 H52            2.9055     3.7356     0.3745 H       
  53 H53            4.3986     3.4401    -0.5533 H       
  54 H54            3.6130     5.4060    -4.1493 H       
  55 H55            2.2116     5.6459    -3.0769 H       
  56 H56            2.5883     5.8947    -0.7106 H       
  57 H57            4.2584     5.8322    -0.0954 H       
  58 H58            4.3118    -3.0576    -0.0196 H       
  59 H59            2.1622    -3.8590     0.8693 H       
  60 H60            2.4437     0.6776    -0.9270 H       
  61 H61            4.4719    -0.7551    -0.9404 H       
  62 H62           -5.6444     5.5031     0.0853 H       
@<TRIPOS>BOND
   1    1    2 1
   2    1   16 1
   3    1    5 1
   4    2    3 2
   5    2   28 1
   6    3    4 1
   7    3   15 1
   8    4    5 ar
   9    4    6 ar
  10    5    9 ar
  11    6    7 ar
  12    6   34 1
  13    7    8 ar
  14    7   35 1
  15    8    9 ar
  16    8   31 1
  17    9   36 1
  18   10   11 1
  19   10   15 1
  20   10   37 1
  21   10   38 1
  22   11   12 1
  23   11   39 1
  24   11   40 1
  25   12   13 1
  26   12   41 1
  27   12   42 1
  28   13   14 1
  29   13   43 1
  30   13   44 1
  31   14   15 1
  32   14   45 1
  33   14   46 1
  34   15   47 1
  35   16   17 1
  36   16   48 1
  37   16   49 1
  38   17   18 2
  39   17   20 am
  40   19   20 1
  41   19   22 1
  42   19   50 1
  43   19   51 1
  44   20   21 1
  45   21   23 1
  46   21   52 1
  47   21   53 1
  48   22   24 1
  49   22   54 1
  50   22   55 1
  51   23   24 1
  52   23   56 1
  53   23   57 1
  54   25   26 ar
  55   25   30 ar
  56   25   58 1
  57   26   27 ar
  58   26   59 1
  59   27   28 ar
  60   28   29 ar
  61   29   30 ar
  62   29   60 1
  63   30   61 1
  64   31   32 2
  65   31   33 1
  66   33   62 1

#	End of record

