#	Name: ASD00170168
#	Creating user name:	WinNT
#	Creation time:	15. 06. 2019 18:31

#	Modifying user name:	WinNT
#	Modification time:	15. 06. 2019 18:31

#	Program:	/corina/corina34_cracker 3.40 0067  02.08.2006

@<TRIPOS>MOLECULE
ASD00170168
  30   32    0    0    0
SMALL
NO_CHARGES


@<TRIPOS>ATOM
   1 C1            -0.0268     1.3320    -0.1411 C.2     
   2 C2            -0.0037     0.0042    -0.1778 C.2     
   3 C3            -1.3277    -0.5835     0.0178 C.2     
   4 C4            -2.3110     0.3520     0.1972 C.2     
   5 S5            -1.6640     1.9238     0.1397 S.3     
   6 N6            -3.6442     0.0594     0.4009 N.pl3   
   7 C7            -1.5767    -2.0246     0.0211 C.2     
   8 C8            -1.8235    -2.7355    -1.2525 C.ar    
   9 C9             1.3743     1.8951    -0.3491 C.3     
  10 C10            2.3220     0.7097    -0.0766 C.3     
  11 C11            1.4194    -0.4932    -0.4163 C.3     
  12 O12           -1.5809    -2.6393     1.0722 O.2     
  13 C13           -1.9547    -4.1247    -1.2655 C.ar    
  14 C14           -2.1855    -4.7819    -2.4576 C.ar    
  15 C15           -2.2865    -4.0654    -3.6377 C.ar    
  16 C16           -2.1572    -2.6878    -3.6307 C.ar    
  17 C17           -1.9318    -2.0190    -2.4456 C.ar    
  18 Br18          -2.3632    -6.6645    -2.4783 Br      
  19 H19           -3.9530    -0.8585     0.3472 H       
  20 H20           -4.2725     0.7718     0.5978 H       
  21 H21            1.4929     2.2477    -1.3737 H       
  22 H22            1.5664     2.7040     0.3558 H       
  23 H23            3.1904     0.7446    -0.7346 H       
  24 H24            2.6272     0.6861     0.9695 H       
  25 H25            1.6428    -1.3327     0.2421 H       
  26 H26            1.5500    -0.7828    -1.4589 H       
  27 H27           -1.8757    -4.6844    -0.3452 H       
  28 H28           -2.4667    -4.5839    -4.5678 H       
  29 H29           -2.2367    -2.1346    -4.5549 H       
  30 H30           -1.8315    -0.9436    -2.4418 H       
@<TRIPOS>BOND
   1    1    2 2
   2    1    9 1
   3    1    5 1
   4    2    3 1
   5    2   11 1
   6    3    4 2
   7    3    7 1
   8    4    5 1
   9    4    6 1
  10    6   19 1
  11    6   20 1
  12    7    8 1
  13    7   12 2
  14    8   13 ar
  15    8   17 ar
  16    9   10 1
  17    9   21 1
  18    9   22 1
  19   10   11 1
  20   10   23 1
  21   10   24 1
  22   11   25 1
  23   11   26 1
  24   13   14 ar
  25   13   27 1
  26   14   15 ar
  27   14   18 1
  28   15   16 ar
  29   15   28 1
  30   16   17 ar
  31   16   29 1
  32   17   30 1

#	End of record

