#	Name: ASD02198888
#	Creating user name:	WinNT
#	Creation time:	15. 06. 2019 20:20

#	Modifying user name:	WinNT
#	Modification time:	15. 06. 2019 20:20

#	Program:	/corina/corina34_cracker 3.40 0067  02.08.2006

@<TRIPOS>MOLECULE
ASD02198888
  47   51    0    0    0
SMALL
NO_CHARGES


@<TRIPOS>ATOM
   1 F1             2.2535    -1.7089     2.4707 F       
   2 C2            -0.0433     1.5018    -0.1148 C.2     
   3 C3            -0.0731     0.1623     0.0977 C.2     
   4 N4             1.0715    -0.5396     0.2600 N.pl3   
   5 N5             2.2360    -0.0049     0.2263 N.2     
   6 C6             2.4077     1.2843     0.0281 C.2     
   7 C7             1.2218     2.1358    -0.1604 C.2     
   8 C8             0.9800    -1.9175     0.4759 C.ar    
   9 C9             1.5813    -2.4874     1.5948 C.ar    
  10 C10            1.4910    -3.8484     1.8091 C.ar    
  11 C11            0.7973    -4.6503     0.9040 C.ar    
  12 C12            0.1962    -4.0761    -0.2157 C.ar    
  13 C13            0.2838    -2.7164    -0.4238 C.ar    
  14 C14            3.7647     1.8664    -0.0041 C.2     
  15 N15            4.3070     2.6064    -1.0171 N.pl3   
  16 N16            5.6090     2.9575    -0.6391 N.2     
  17 C17            5.8525     2.4576     0.5462 C.2     
  18 C18            4.7202     1.7707     0.9838 C.2     
  19 C19            3.6740     2.9518    -2.2179 C.ar    
  20 C20            3.8086     4.2350    -2.7311 C.ar    
  21 C21            3.1838     4.5731    -3.9158 C.ar    
  22 C22            2.4248     3.6355    -4.5910 C.ar    
  23 C23            2.2880     2.3554    -4.0823 C.ar    
  24 C24            2.9155     2.0099    -2.9004 C.ar    
  25 O25            1.3249     3.3387    -0.3482 O.2     
  26 C26            0.6992    -6.1123     1.1314 C.ar    
  27 N27            1.2739    -6.6524     2.1988 N.ar    
  28 C28           -0.0005    -6.9070     0.2258 C.ar    
  29 C29           -0.0839    -8.2702     0.4517 C.ar    
  30 C30            0.5360    -8.7942     1.5770 C.ar    
  31 C31            1.2096    -7.9464     2.4371 C.ar    
  32 Cl32           1.3331     1.1814    -4.9329 Cl      
  33 H33           -0.9546     2.0655    -0.2493 H       
  34 H34           -1.0230    -0.3501     0.1380 H       
  35 H35            1.9575    -4.2912     2.6766 H       
  36 H36           -0.3412    -4.6963    -0.9178 H       
  37 H37           -0.1823    -2.2723    -1.2909 H       
  38 H38            6.7761     2.5633     1.0960 H       
  39 H39            4.6140     1.2514     1.9248 H       
  40 H40            4.4010     4.9683    -2.2041 H       
  41 H41            3.2881     5.5713    -4.3148 H       
  42 H42            1.9373     3.9024    -5.5171 H       
  43 H43            2.8091     1.0110    -2.5037 H       
  44 H44           -0.4716    -6.4656    -0.6401 H       
  45 H45           -0.6197    -8.9114    -0.2325 H       
  46 H46            0.4893    -9.8537     1.7815 H       
  47 H47            1.6931    -8.3512     3.3139 H       
@<TRIPOS>BOND
   1    1    9 1
   2    2    3 2
   3    2    7 1
   4    2   33 1
   5    3    4 1
   6    3   34 1
   7    4    5 1
   8    4    8 1
   9    5    6 2
  10    6    7 1
  11    6   14 1
  12    7   25 2
  13    8    9 ar
  14    8   13 ar
  15    9   10 ar
  16   10   11 ar
  17   10   35 1
  18   11   12 ar
  19   11   26 1
  20   12   13 ar
  21   12   36 1
  22   13   37 1
  23   14   15 1
  24   14   18 2
  25   15   16 1
  26   15   19 1
  27   16   17 2
  28   17   18 1
  29   17   38 1
  30   18   39 1
  31   19   20 ar
  32   19   24 ar
  33   20   21 ar
  34   20   40 1
  35   21   22 ar
  36   21   41 1
  37   22   23 ar
  38   22   42 1
  39   23   24 ar
  40   23   32 1
  41   24   43 1
  42   26   27 ar
  43   26   28 ar
  44   27   31 ar
  45   28   29 ar
  46   28   44 1
  47   29   30 ar
  48   29   45 1
  49   30   31 ar
  50   30   46 1
  51   31   47 1

#	End of record

