#	Name: ASD01903194
#	Creating user name:	WinNT
#	Creation time:	15. 06. 2019 19:54

#	Modifying user name:	WinNT
#	Modification time:	15. 06. 2019 19:54

#	Program:	/corina/corina34_cracker 3.40 0067  02.08.2006

@<TRIPOS>MOLECULE
ASD01903194
  43   45    0    0    0
SMALL
NO_CHARGES


@<TRIPOS>ATOM
   1 S1             0.4532     0.9584    -0.6684 S.3     
   2 C2             0.8935    -0.7199    -0.9697 C.2     
   3 N3             2.1855    -0.8382    -0.9346 N.2     
   4 C4             2.8834     0.2625    -0.6930 C.2     
   5 C5             2.1575     1.3778    -0.5121 C.2     
   6 N6            -0.0004    -1.7537    -1.2067 N.pl3   
   7 C7             0.4722    -3.0214    -1.5319 C.ar    
   8 N8             1.7704    -3.2122    -1.7087 N.ar    
   9 C9             2.2597    -4.3981    -2.0174 C.ar    
  10 C10            1.4283    -5.4897    -2.1679 C.ar    
  11 C11            0.0599    -5.3320    -1.9910 C.ar    
  12 C12           -0.4231    -4.0782    -1.6627 C.ar    
  13 C13            4.3674     0.2623    -0.6262 C.2     
  14 C14            5.2194     1.2989    -1.0531 C.2     
  15 N15            6.4531     0.9289    -0.8308 N.2     
  16 N16            6.4378    -0.3485    -0.2577 N.pl3   
  17 C17            5.1516    -0.7395    -0.1349 C.2     
  18 C18            2.7062     2.7519    -0.2258 C.3     
  19 N19            2.9443     3.4577    -1.4919 N.3     
  20 C20            1.9720     4.1013    -3.6455 C.3     
  21 C21            1.6805     3.7248    -2.1914 C.3     
  22 C22            5.1659     4.3676    -1.0087 C.3     
  23 C23            3.6954     4.7003    -1.2688 C.3     
  24 H24           -0.9551    -1.5929    -1.1457 H       
  25 H25            3.3245    -4.5162    -2.1544 H       
  26 H26            1.8378    -6.4565    -2.4210 H       
  27 H27           -0.6116    -6.1704    -2.1032 H       
  28 H28           -1.4816    -3.9201    -1.5179 H       
  29 H29            4.9076     2.2366    -1.4889 H       
  30 H30            7.2165    -0.8622     0.0081 H       
  31 H31            4.8063    -1.6780     0.2730 H       
  32 H32            1.9883     3.3123     0.3731 H       
  33 H33            3.6443     2.6617     0.3219 H       
  34 H34            1.0333     4.2807    -4.1696 H       
  35 H35            2.5812     5.0048    -3.6717 H       
  36 H36            2.5093     3.2866    -4.1310 H       
  37 H37            1.0552     2.8324    -2.1655 H       
  38 H38            1.1603     4.5473    -1.7005 H       
  39 H39            5.2396     3.6820    -0.1646 H       
  40 H40            5.5950     3.9001    -1.8950 H       
  41 H41            5.7110     5.2838    -0.7813 H       
  42 H42            3.6171     5.3355    -2.1511 H       
  43 H43            3.2833     5.2240    -0.4063 H       
@<TRIPOS>BOND
   1    1    2 1
   2    1    5 1
   3    2    3 2
   4    2    6 1
   5    3    4 1
   6    4    5 2
   7    4   13 1
   8    5   18 1
   9    6    7 1
  10    6   24 1
  11    7    8 ar
  12    7   12 ar
  13    8    9 ar
  14    9   10 ar
  15    9   25 1
  16   10   11 ar
  17   10   26 1
  18   11   12 ar
  19   11   27 1
  20   12   28 1
  21   13   14 1
  22   13   17 2
  23   14   15 2
  24   14   29 1
  25   15   16 1
  26   16   17 1
  27   16   30 1
  28   17   31 1
  29   18   19 1
  30   18   32 1
  31   18   33 1
  32   19   21 1
  33   19   23 1
  34   20   21 1
  35   20   34 1
  36   20   35 1
  37   20   36 1
  38   21   37 1
  39   21   38 1
  40   22   23 1
  41   22   39 1
  42   22   40 1
  43   22   41 1
  44   23   42 1
  45   23   43 1

#	End of record

