#	Name: ASD02590052
#	Creating user name:	WinNT
#	Creation time:	15. 06. 2019 20:25

#	Modifying user name:	WinNT
#	Modification time:	15. 06. 2019 20:25

#	Program:	/corina/corina34_cracker 3.40 0067  02.08.2006

@<TRIPOS>MOLECULE
ASD02590052
  34   36    0    0    0
SMALL
NO_CHARGES


@<TRIPOS>ATOM
   1 C1            -0.0168     1.3875     0.0097 C.ar    
   2 C2             0.0021    -0.0041     0.0020 C.ar    
   3 C3            -1.1776    -0.7182     0.0090 C.ar    
   4 C4            -2.3920    -0.0482     0.0242 C.ar    
   5 C5            -2.4200     1.3575     0.0325 C.ar    
   6 C6            -1.2168     2.0701     0.0305 C.ar    
   7 N7            -3.7134    -0.4604     0.0342 N.pl3   
   8 C8            -4.4888     0.6679     0.0479 C.2     
   9 N9            -3.7227     1.7328     0.0468 N.2     
  10 C10           -5.9650     0.6837     0.0614 C.ar    
  11 C11           -6.6551     1.9032     0.0749 C.ar    
  12 C12           -8.0393     1.9099     0.0875 C.ar    
  13 C13           -8.7393     0.7125     0.0868 C.ar    
  14 C14           -8.0558    -0.4982     0.0734 C.ar    
  15 C15           -6.6788    -0.5166     0.0550 C.ar    
  16 O16           -5.9683     3.0743     0.0760 O.3     
  17 O17          -10.0972     0.7227     0.0997 O.3     
  18 C18          -10.7555    -0.5456     0.0982 C.3     
  19 O19            1.1539     2.0791     0.0022 O.3     
  20 C20            2.3600     1.3129    -0.0134 C.3     
  21 H21            0.9465    -0.5279    -0.0098 H       
  22 H22           -1.1559    -1.7979     0.0023 H       
  23 H23           -1.2263     3.1500     0.0372 H       
  24 H24           -4.0306    -1.3770     0.0319 H       
  25 H25           -8.5745     2.8479     0.0982 H       
  26 H26           -8.6066    -1.4272     0.0733 H       
  27 H27           -6.1512    -1.4589     0.0443 H       
  28 H28           -5.7771     3.4190    -0.8071 H       
  29 H29          -10.4753    -1.0994    -0.7979 H       
  30 H30          -10.4585    -1.1102     0.9820 H       
  31 H31          -11.8350    -0.3947     0.1093 H       
  32 H32            2.3996     0.6796     0.8728 H       
  33 H33            2.3827     0.6892    -0.9070 H       
  34 H34            3.2177     1.9855    -0.0180 H       
@<TRIPOS>BOND
   1    1    2 ar
   2    1   19 1
   3    1    6 ar
   4    2    3 ar
   5    2   21 1
   6    3    4 ar
   7    3   22 1
   8    4    5 ar
   9    4    7 1
  10    5    6 ar
  11    5    9 1
  12    6   23 1
  13    7    8 1
  14    7   24 1
  15    8    9 2
  16    8   10 1
  17   10   11 ar
  18   10   15 ar
  19   11   12 ar
  20   11   16 1
  21   12   13 ar
  22   12   25 1
  23   13   14 ar
  24   13   17 1
  25   14   15 ar
  26   14   26 1
  27   15   27 1
  28   16   28 1
  29   17   18 1
  30   18   29 1
  31   18   30 1
  32   18   31 1
  33   19   20 1
  34   20   32 1
  35   20   33 1
  36   20   34 1

#	End of record

