#	Name: ASD08150592
#	Creating user name:	WinNT
#	Creation time:	15. 06. 2019 21:16

#	Modifying user name:	WinNT
#	Modification time:	15. 06. 2019 21:16

#	Program:	/corina/corina34_cracker 3.40 0067  02.08.2006

@<TRIPOS>MOLECULE
ASD08150592
  82   89    0    0    0
SMALL
NO_CHARGES


@<TRIPOS>ATOM
   1 N1            -1.8648     4.3387    -4.2445 N.am    
   2 C2            -2.3012     4.8844    -5.3963 C.2     
   3 C3            -1.4167     5.1117    -6.4701 C.2     
   4 C4            -0.1050     4.7813    -6.3563 C.2     
   5 C5             0.3575     4.2074    -5.1459 C.ar    
   6 C6             1.7078     3.8469    -4.9753 C.ar    
   7 N7             2.1318     3.3176    -3.8575 N.ar    
   8 C8             1.3161     3.0888    -2.8171 C.ar    
   9 C9            -0.0587     3.4208    -2.8997 C.ar    
  10 C10           -0.5495     3.9943    -4.0962 C.ar    
  11 C11           -0.9005     3.1774    -1.8102 C.ar    
  12 C12           -0.3788     2.6122    -0.6577 C.ar    
  13 C13            0.9828     2.2867    -0.5833 C.ar    
  14 C14            1.8141     2.5175    -1.6345 C.ar    
  15 O15           -3.4771     5.1854    -5.5117 O.2     
  16 C16           -1.2648     2.3507     0.5025 C.ar    
  17 C17           -2.7629     4.1278    -3.1900 C.ar    
  18 C18           -3.0986     5.1767    -2.3434 C.ar    
  19 C19           -3.9831     4.9692    -1.3046 C.ar    
  20 C20           -4.5379     3.7110    -1.1056 C.ar    
  21 C21           -4.2021     2.6622    -1.9522 C.ar    
  22 C22           -3.3216     2.8715    -2.9946 C.ar    
  23 N23           -5.4336     3.5004    -0.0531 N.3     
  24 C24           -6.8233     3.5500    -0.5266 C.3     
  25 C25           -7.7624     3.1375     0.6119 C.3     
  26 C26           -2.3276     3.2215     0.7911 C.ar    
  27 N27           -3.1254     3.0153     1.8080 N.ar    
  28 C28           -2.9686     1.9661     2.6222 C.ar    
  29 C29           -1.9181     1.0411     2.3968 C.ar    
  30 C30           -1.0529     1.2406     1.3074 C.ar    
  31 C31           -5.2059     4.4635     1.0326 C.3     
  32 C32           -6.0787     4.0884     2.2350 C.3     
  33 N33           -7.4742     3.9789     1.7833 N.am    
  34 C34           -8.4625     4.6325     2.4256 C.2     
  35 C35           -8.1438     5.4941     3.6203 C.3     
  36 O36           -9.6082     4.5273     2.0421 O.2     
  37 C37           -8.8330     6.8530     3.4695 C.3     
  38 C38           -8.5560     7.7008     4.7131 C.3     
  39 N39           -9.0609     7.0053     5.9037 N.3     
  40 C40           -8.3798     5.7185     6.0957 C.3     
  41 C41           -8.6516     4.8116     4.8934 C.3     
  42 C42           -3.8355     1.7617     3.7099 C.ar    
  43 C43           -3.6560     0.6869     4.5252 C.ar    
  44 C44           -2.6226    -0.2210     4.3020 C.ar    
  45 C45           -1.7626    -0.0572     3.2595 C.ar    
  46 C46           -4.8034     1.2973    -1.7362 C.3     
  47 F47           -3.8566     0.3159    -2.0487 F       
  48 F48           -5.1889     1.1640    -0.3979 F       
  49 F49           -5.9228     1.1449    -2.5613 F       
  50 H50           -1.7839     5.5499    -7.3864 H       
  51 H51            0.5763     4.9530    -7.1766 H       
  52 H52            2.4062     4.0102    -5.7828 H       
  53 H53           -1.9494     3.4285    -1.8664 H       
  54 H54            1.3768     1.8469     0.3210 H       
  55 H55            2.8604     2.2603    -1.5600 H       
  56 H56           -2.6671     6.1546    -2.4979 H       
  57 H57           -4.2439     5.7846    -0.6463 H       
  58 H58           -3.0639     2.0572    -3.6555 H       
  59 H59           -7.0628     4.5642    -0.8462 H       
  60 H60           -6.9463     2.8652    -1.3657 H       
  61 H61           -8.7977     3.2820     0.3032 H       
  62 H62           -7.5951     2.0902     0.8633 H       
  63 H63           -2.4905     4.0821     0.1593 H       
  64 H64           -0.2427     0.5549     1.1075 H       
  65 H65           -4.1559     4.4412     1.3242 H       
  66 H66           -5.4679     5.4650     0.6913 H       
  67 H67           -5.7496     3.1325     2.6424 H       
  68 H68           -6.0009     4.8617     2.9993 H       
  69 H69           -7.0655     5.6381     3.6883 H       
  70 H70           -8.4442     7.3624     2.5878 H       
  71 H71           -9.9077     6.7061     3.3613 H       
  72 H72           -7.4821     7.8590     4.8129 H       
  73 H73           -9.0572     8.6638     4.6152 H       
  74 H74           -8.9758     7.5855     6.7248 H       
  75 H75           -7.3068     5.8860     6.1891 H       
  76 H76           -8.7531     5.2417     7.0020 H       
  77 H77           -9.7234     4.6325     4.8076 H       
  78 H78           -8.1332     3.8624     5.0290 H       
  79 H79           -4.6413     2.4557     3.8981 H       
  80 H80           -4.3253     0.5352     5.3591 H       
  81 H81           -2.5022    -1.0652     4.9648 H       
  82 H82           -0.9656    -0.7675     3.0963 H       
@<TRIPOS>BOND
   1    1    2 am
   2    1   10 1
   3    1   17 1
   4    2    3 1
   5    2   15 2
   6    3    4 2
   7    3   50 1
   8    4    5 1
   9    4   51 1
  10    5    6 ar
  11    5   10 ar
  12    6    7 ar
  13    6   52 1
  14    7    8 ar
  15    8    9 ar
  16    8   14 ar
  17    9   10 ar
  18    9   11 ar
  19   11   12 ar
  20   11   53 1
  21   12   13 ar
  22   12   16 1
  23   13   14 ar
  24   13   54 1
  25   14   55 1
  26   16   26 ar
  27   16   30 ar
  28   17   18 ar
  29   17   22 ar
  30   18   19 ar
  31   18   56 1
  32   19   20 ar
  33   19   57 1
  34   20   21 ar
  35   20   23 1
  36   21   22 ar
  37   21   46 1
  38   22   58 1
  39   23   24 1
  40   23   31 1
  41   24   25 1
  42   24   59 1
  43   24   60 1
  44   25   33 1
  45   25   61 1
  46   25   62 1
  47   26   27 ar
  48   26   63 1
  49   27   28 ar
  50   28   29 ar
  51   28   42 ar
  52   29   30 ar
  53   29   45 ar
  54   30   64 1
  55   31   32 1
  56   31   65 1
  57   31   66 1
  58   32   33 1
  59   32   67 1
  60   32   68 1
  61   33   34 am
  62   34   35 1
  63   34   36 2
  64   35   37 1
  65   35   41 1
  66   35   69 1
  67   37   38 1
  68   37   70 1
  69   37   71 1
  70   38   39 1
  71   38   72 1
  72   38   73 1
  73   39   40 1
  74   39   74 1
  75   40   41 1
  76   40   75 1
  77   40   76 1
  78   41   77 1
  79   41   78 1
  80   42   43 ar
  81   42   79 1
  82   43   44 ar
  83   43   80 1
  84   44   45 ar
  85   44   81 1
  86   45   82 1
  87   46   47 1
  88   46   48 1
  89   46   49 1

#	End of record

