#	Name: ASD01940404
#	Creating user name:	WinNT
#	Creation time:	15. 06. 2019 20:12

#	Modifying user name:	WinNT
#	Modification time:	15. 06. 2019 20:12

#	Program:	/corina/corina34_cracker 3.40 0067  02.08.2006

@<TRIPOS>MOLECULE
ASD01940404
  46   48    0    0    0
SMALL
NO_CHARGES


@<TRIPOS>ATOM
   1 S1             1.6629     2.4731     2.6898 S.3     
   2 N2             2.1067     0.9732     3.3449 N.2     
   3 C3             2.7535     0.3129     2.4462 C.2     
   4 C4             2.9601     0.9018     1.1879 C.ar    
   5 C5             2.3962     2.1881     1.1084 C.ar    
   6 C6             2.4883     2.9461    -0.0565 C.ar    
   7 C7             3.1555     2.4162    -1.1689 C.ar    
   8 C8             3.7189     1.1313    -1.0893 C.ar    
   9 C9             3.6285     0.3961     0.0439 C.ar    
  10 C10            3.2649     3.1986    -2.4104 C.2     
  11 O11            2.7599     4.3031    -2.4798 O.2     
  12 N12            3.9247     2.6915    -3.4706 N.am    
  13 O13            4.0300     3.4443    -4.6653 O.3     
  14 C14            4.7550     2.7854    -5.7055 C.3     
  15 C15            4.8054     3.6859    -6.9415 C.3     
  16 C16            5.6856     3.0357    -8.0107 C.3     
  17 O17            5.8274     3.9278    -9.1180 O.3     
  18 O18            3.4839     3.8634    -7.4556 O.3     
  19 N19            1.9250     4.2125    -0.1150 N.pl3   
  20 C20            0.6353     4.3822    -0.6359 C.ar    
  21 C21            0.0230     5.6305    -0.5846 C.ar    
  22 C22           -1.2487     5.7971    -1.0989 C.ar    
  23 C23           -1.9148     4.7178    -1.6669 C.ar    
  24 C24           -1.3026     3.4719    -1.7170 C.ar    
  25 C25           -0.0292     3.3064    -1.2081 C.ar    
  26 S26           -3.5364     4.9295    -2.3229 S.3     
  27 C27           -3.9512     3.2708    -2.9289 C.3     
  28 F28            0.6712     6.6791    -0.0319 F       
  29 H29            3.1308    -0.6767     2.6576 H       
  30 H30            4.2327     0.7232    -1.9471 H       
  31 H31            4.0712    -0.5885     0.0771 H       
  32 H32            4.3274     1.8107    -3.4153 H       
  33 H33            5.7697     2.5776    -5.3658 H       
  34 H34            4.2576     1.8490    -5.9583 H       
  35 H35            5.2221     4.6553    -6.6680 H       
  36 H36            6.6677     2.8192    -7.5904 H       
  37 H37            5.2224     2.1085    -8.3481 H       
  38 H38            6.3745     3.5802    -9.8356 H       
  39 H39            3.0508     3.0401    -7.7198 H       
  40 H40            2.4238     4.9805     0.2047 H       
  41 H41           -1.7249     6.7657    -1.0592 H       
  42 H42           -1.8208     2.6333    -2.1581 H       
  43 H43            0.4478     2.3385    -1.2515 H       
  44 H44           -3.2285     2.9699    -3.6874 H       
  45 H45           -3.9237     2.5637    -2.0999 H       
  46 H46           -4.9507     3.2823    -3.3637 H       
@<TRIPOS>BOND
   1    1    2 1
   2    1    5 1
   3    2    3 2
   4    3    4 1
   5    3   29 1
   6    4    5 ar
   7    4    9 ar
   8    5    6 ar
   9    6    7 ar
  10    6   19 1
  11    7    8 ar
  12    7   10 1
  13    8    9 ar
  14    8   30 1
  15    9   31 1
  16   10   11 2
  17   10   12 am
  18   12   13 1
  19   12   32 1
  20   13   14 1
  21   14   15 1
  22   14   33 1
  23   14   34 1
  24   15   16 1
  25   15   18 1
  26   15   35 1
  27   16   17 1
  28   16   36 1
  29   16   37 1
  30   17   38 1
  31   18   39 1
  32   19   20 1
  33   19   40 1
  34   20   21 ar
  35   20   25 ar
  36   21   22 ar
  37   21   28 1
  38   22   23 ar
  39   22   41 1
  40   23   24 ar
  41   23   26 1
  42   24   25 ar
  43   24   42 1
  44   25   43 1
  45   26   27 1
  46   27   44 1
  47   27   45 1
  48   27   46 1

#	End of record

