#	Name: ASD04910187
#	Creating user name:	WinNT
#	Creation time:	15. 06. 2019 20:55

#	Modifying user name:	WinNT
#	Modification time:	15. 06. 2019 20:55

#	Program:	/corina/corina34_cracker 3.40 0067  02.08.2006

@<TRIPOS>MOLECULE
ASD04910187
  28   28    0    0    0
SMALL
NO_CHARGES


@<TRIPOS>ATOM
   1 C1            -0.0180     1.4730     0.0101 C.2     
   2 C2             0.0021    -0.0041     0.0020 C.ar    
   3 C3             1.2188    -0.6888    -0.0133 C.ar    
   4 C4             1.2303    -2.0682    -0.0203 C.ar    
   5 C5             0.0396    -2.7731    -0.0127 C.ar    
   6 C6            -1.1697    -2.1009     0.0020 C.ar    
   7 C7            -1.1956    -0.7217     0.0154 C.ar    
   8 O8             1.0256     2.0946     0.0035 O.2     
   9 O9            -1.1936     2.1307     0.0193 O.3     
  10 C10            0.0601    -4.2800    -0.0210 C.3     
  11 C11           -0.1699    -4.8009     1.3991 C.3     
  12 C12           -0.0255    -6.3241     1.4132 C.3     
  13 C13           -0.2555    -6.8450     2.8333 C.3     
  14 O14           -0.9737    -4.7657    -0.8798 O.3     
  15 H15            2.1488    -0.1398    -0.0199 H       
  16 H16            2.1707    -2.5992    -0.0321 H       
  17 H17           -2.0953    -2.6572     0.0071 H       
  18 H18           -2.1401    -0.1983     0.0318 H       
  19 H19           -1.1561     3.0969     0.0244 H       
  20 H20            1.0272    -4.6283    -0.3836 H       
  21 H21            0.5660    -4.3600     2.0715 H       
  22 H22           -1.1725    -4.5280     1.7284 H       
  23 H23           -0.7614    -6.7650     0.7408 H       
  24 H24            0.9771    -6.5970     1.0840 H       
  25 H25           -0.1526    -7.9301     2.8433 H       
  26 H26            0.4804    -6.4041     3.5057 H       
  27 H27           -1.2581    -6.5720     3.1625 H       
  28 H28           -1.8636    -4.4938    -0.6167 H       
@<TRIPOS>BOND
   1    1    2 1
   2    1    8 2
   3    1    9 1
   4    2    3 ar
   5    2    7 ar
   6    3    4 ar
   7    3   15 1
   8    4    5 ar
   9    4   16 1
  10    5    6 ar
  11    5   10 1
  12    6    7 ar
  13    6   17 1
  14    7   18 1
  15    9   19 1
  16   10   11 1
  17   10   14 1
  18   10   20 1
  19   11   12 1
  20   11   21 1
  21   11   22 1
  22   12   13 1
  23   12   23 1
  24   12   24 1
  25   13   25 1
  26   13   26 1
  27   13   27 1
  28   14   28 1

#	End of record

