#	Name: ASD03490102
#	Creating user name:	WinNT
#	Creation time:	15. 06. 2019 20:42

#	Modifying user name:	WinNT
#	Modification time:	15. 06. 2019 20:42

#	Program:	/corina/corina34_cracker 3.40 0067  02.08.2006

@<TRIPOS>MOLECULE
ASD03490102
  58   62    0    0    0
SMALL
NO_CHARGES


@<TRIPOS>ATOM
   1 C1            -0.0302     1.4037    -0.0678 C.ar    
   2 C2            -0.1734     0.2653     0.7065 C.ar    
   3 C3             0.8799    -0.1799     1.4965 C.ar    
   4 C4             2.0789     0.5161     1.5106 C.ar    
   5 C5             2.2245     1.6633     0.7302 C.ar    
   6 C6             1.1619     2.1040    -0.0600 C.ar    
   7 C7             3.5001     2.4103     0.7410 C.2     
   8 O8             4.4243     2.0252     1.4306 O.2     
   9 N9             3.6386     3.5184    -0.0137 N.am    
  10 C10            4.8093     4.2800     0.0700 C.ar    
  11 C11            6.0356     3.6449     0.2597 C.ar    
  12 C12            7.1871     4.3740     0.3434 C.ar    
  13 C13            7.1381     5.7656     0.2381 C.ar    
  14 C14            8.1502     6.8245     0.2822 C.2     
  15 C15            7.5055     7.9907     0.1230 C.2     
  16 N16            6.1621     7.7659    -0.0197 N.pl3   
  17 C17            5.1503     8.8073    -0.2143 C.3     
  18 C18            4.5396     9.1840     1.1370 C.3     
  19 C19            3.4988    10.2553     0.9367 C.ar    
  20 C20            2.1741     9.9222     0.6987 C.ar    
  21 C21            1.2474    10.9319     0.5204 C.ar    
  22 N22            1.6109    12.1983     0.5740 N.ar    
  23 C23            2.8614    12.5519     0.7983 C.ar    
  24 C24            3.8421    11.5975     0.9919 C.ar    
  25 C25            5.9044     6.4147     0.0461 C.ar    
  26 C26            4.7416     5.6581    -0.0419 C.ar    
  27 N27            0.7302    -1.3289     2.2770 N.3     
  28 C28           -0.6120    -1.9060     2.1131 C.3     
  29 C29           -0.7126    -3.1925     2.9369 C.3     
  30 O30           -0.4115    -2.9016     4.3044 O.3     
  31 C31            0.8885    -2.3388     4.5007 C.3     
  32 C32            1.0053    -1.0437     3.6927 C.3     
  33 F33           -1.0560     1.8284    -0.8374 F       
  34 H34           -1.1065    -0.2783     0.6970 H       
  35 H35            2.8980     0.1712     2.1243 H       
  36 H36            1.2709     2.9917    -0.6654 H       
  37 H37            2.9266     3.7878    -0.6148 H       
  38 H38            6.0752     2.5687     0.3413 H       
  39 H39            8.1337     3.8755     0.4911 H       
  40 H40            9.2134     6.6916     0.4176 H       
  41 H41            7.9763     8.9626     0.1098 H       
  42 H42            5.6150     9.6865    -0.6607 H       
  43 H43            4.3679     8.4347    -0.8755 H       
  44 H44            4.0749     8.3048     1.5834 H       
  45 H45            5.3220     9.5566     1.7981 H       
  46 H46            1.8703     8.8868     0.6529 H       
  47 H47            0.2136    10.6808     0.3345 H       
  48 H48            3.1215    13.5995     0.8349 H       
  49 H49            4.8636    11.8934     1.1797 H       
  50 H50            3.7888     6.1437    -0.1928 H       
  51 H51           -1.3597    -1.1925     2.4595 H       
  52 H52           -0.7846    -2.1330     1.0611 H       
  53 H53           -1.7236    -3.5932     2.8641 H       
  54 H54           -0.0015    -3.9253     2.5556 H       
  55 H55            1.0354    -2.1222     5.5588 H       
  56 H56            1.6461    -3.0469     4.1649 H       
  57 H57            2.0132    -0.6413     3.7937 H       
  58 H58            0.2834    -0.3164     4.0644 H       
@<TRIPOS>BOND
   1    1    2 ar
   2    1    6 ar
   3    1   33 1
   4    2    3 ar
   5    2   34 1
   6    3    4 ar
   7    3   27 1
   8    4    5 ar
   9    4   35 1
  10    5    6 ar
  11    5    7 1
  12    6   36 1
  13    7    8 2
  14    7    9 am
  15    9   10 1
  16    9   37 1
  17   10   11 ar
  18   10   26 ar
  19   11   12 ar
  20   11   38 1
  21   12   13 ar
  22   12   39 1
  23   13   14 1
  24   13   25 ar
  25   14   15 2
  26   14   40 1
  27   15   16 1
  28   15   41 1
  29   16   17 1
  30   16   25 1
  31   17   18 1
  32   17   42 1
  33   17   43 1
  34   18   19 1
  35   18   44 1
  36   18   45 1
  37   19   20 ar
  38   19   24 ar
  39   20   21 ar
  40   20   46 1
  41   21   22 ar
  42   21   47 1
  43   22   23 ar
  44   23   24 ar
  45   23   48 1
  46   24   49 1
  47   25   26 ar
  48   26   50 1
  49   27   28 1
  50   27   32 1
  51   28   29 1
  52   28   51 1
  53   28   52 1
  54   29   30 1
  55   29   53 1
  56   29   54 1
  57   30   31 1
  58   31   32 1
  59   31   55 1
  60   31   56 1
  61   32   57 1
  62   32   58 1

#	End of record

