#	Name: ASD01911616
#	Creating user name:	WinNT
#	Creation time:	15. 06. 2019 19:58

#	Modifying user name:	WinNT
#	Modification time:	15. 06. 2019 19:58

#	Program:	/corina/corina34_cracker 3.40 0067  02.08.2006

@<TRIPOS>MOLECULE
ASD01911616
  38   41    0    0    0
SMALL
NO_CHARGES


@<TRIPOS>ATOM
   1 N1            -0.0257     1.3140    -0.2780 N.am    
   2 C2             0.0021    -0.0041     0.0020 C.2     
   3 C3            -1.2508    -0.7543     0.1205 C.2     
   4 C4            -1.3862    -2.1135     0.0310 C.2     
   5 S5            -2.8471    -0.0659     0.4110 S.3     
   6 C6            -3.5481    -1.6813     0.3771 C.2     
   7 N7            -2.6014    -2.5626     0.1691 N.2     
   8 C8            -4.9363    -1.9846     0.5542 C.1     
   9 C9            -6.0745    -2.2333     0.6993 C.1     
  10 C10           -7.4627    -2.5366     0.8764 C.ar    
  11 C11           -7.9039    -3.8625     0.8289 C.ar    
  12 C12           -9.2423    -4.1466     1.0008 C.ar    
  13 C13          -10.1481    -3.1233     1.2194 C.ar    
  14 C14           -9.7191    -1.8084     1.2677 C.ar    
  15 C15           -8.3831    -1.5088     1.1034 C.ar    
  16 O16            1.0680    -0.5711     0.1564 O.2     
  17 C17            1.2078     2.1142    -0.2595 C.3     
  18 C18            1.4952     2.6291    -1.6754 C.3     
  19 C19            0.2162     3.1669    -2.2661 C.2     
  20 C20           -1.0261     2.8826    -1.7982 C.2     
  21 C21           -1.2925     1.9876    -0.6163 C.3     
  22 N22            0.0775     3.9901    -3.3196 N.pl3   
  23 N23           -1.2935     4.2176    -3.5105 N.2     
  24 C24           -1.9522     3.5504    -2.5944 C.2     
  25 H25           -0.5446    -2.7679    -0.1422 H       
  26 H26           -7.1983    -4.6621     0.6577 H       
  27 H27           -9.5846    -5.1703     0.9644 H       
  28 H28          -11.1951    -3.3520     1.3526 H       
  29 H29          -10.4319    -1.0152     1.4383 H       
  30 H30           -8.0499    -0.4822     1.1413 H       
  31 H31            1.0835     2.9595     0.4172 H       
  32 H32            2.0387     1.4949     0.0784 H       
  33 H33            2.2396     3.4241    -1.6309 H       
  34 H34            1.8673     1.8116    -2.2930 H       
  35 H35           -2.0517     1.2491    -0.8738 H       
  36 H36           -1.6264     2.5839     0.2328 H       
  37 H37            0.7977     4.3612    -3.8531 H       
  38 H38           -3.0256     3.5239    -2.4775 H       
@<TRIPOS>BOND
   1    1    2 am
   2    1   17 1
   3    1   21 1
   4    2    3 1
   5    2   16 2
   6    3    4 2
   7    3    5 1
   8    4    7 1
   9    4   25 1
  10    5    6 1
  11    6    7 2
  12    6    8 1
  13    8    9 3
  14    9   10 1
  15   10   11 ar
  16   10   15 ar
  17   11   12 ar
  18   11   26 1
  19   12   13 ar
  20   12   27 1
  21   13   14 ar
  22   13   28 1
  23   14   15 ar
  24   14   29 1
  25   15   30 1
  26   17   18 1
  27   17   31 1
  28   17   32 1
  29   18   19 1
  30   18   33 1
  31   18   34 1
  32   19   20 2
  33   19   22 1
  34   20   21 1
  35   20   24 1
  36   21   35 1
  37   21   36 1
  38   22   23 1
  39   22   37 1
  40   23   24 2
  41   24   38 1

#	End of record

