#	Name: ASD01917044
#	Creating user name:	WinNT
#	Creation time:	15. 06. 2019 20:08

#	Modifying user name:	WinNT
#	Modification time:	15. 06. 2019 20:08

#	Program:	/corina/corina34_cracker 3.40 0067  02.08.2006

@<TRIPOS>MOLECULE
ASD01917044
  40   42    0    0    0
SMALL
NO_CHARGES


@<TRIPOS>ATOM
   1 C1            -0.0188     1.5345     0.0105 C.3     
   2 C2             0.0021    -0.0041     0.0020 C.3     
   3 C3            -0.6952    -0.5230    -1.2291 C.2     
   4 N4            -0.3503    -0.2765    -2.4653 N.2     
   5 C5            -1.1908    -0.8985    -3.3030 C.2     
   6 N6            -2.0855    -1.5518    -2.5945 N.2     
   7 N7            -1.7757    -1.3241    -1.2438 N.pl3   
   8 C8            -2.4936    -1.8487    -0.0795 C.3     
   9 C9            -1.9011    -3.1754     0.3202 C.2     
  10 O10           -2.4030    -3.8459     1.3691 O.3     
  11 O11           -0.9742    -3.6355    -0.3035 O.2     
  12 C12           -1.7829    -5.1173     1.6967 C.3     
  13 C13           -1.1235    -0.8567    -4.7849 C.ar    
  14 C14           -2.0617    -1.5501    -5.5467 C.ar    
  15 C15           -0.1253    -0.1192    -5.4184 C.ar    
  16 C16           -0.0664    -0.0831    -6.7964 C.ar    
  17 C17           -0.9981    -0.7783    -7.5501 C.ar    
  18 C18           -1.9955    -1.5086    -6.9243 C.ar    
  19 F19           -0.9374    -0.7396    -8.8992 F       
  20 C20            1.4862    -0.4246    -0.0144 C.3     
  21 C21            2.2325     0.7924     0.5864 C.3     
  22 C22            1.4534     1.9953    -0.0011 C.3     
  23 H23           -0.5332     1.9058    -0.8758 H       
  24 H24           -0.5162     1.8962     0.9104 H       
  25 H25           -0.4859    -0.3890     0.8974 H       
  26 H26           -2.4042    -1.1463     0.7492 H       
  27 H27           -3.5458    -1.9817    -0.3311 H       
  28 H28           -2.2826    -5.5531     2.5618 H       
  29 H29           -1.8710    -5.7942     0.8470 H       
  30 H30           -0.7294    -4.9589     1.9273 H       
  31 H31           -2.8395    -2.1196    -5.0597 H       
  32 H32            0.6010     0.4236    -4.8317 H       
  33 H33            0.7069     0.4883    -7.2883 H       
  34 H34           -2.7198    -2.0491    -7.5155 H       
  35 H35            1.6390    -1.3091     0.6040 H       
  36 H36            1.8189    -0.6099    -1.0357 H       
  37 H37            2.1693     0.7856     1.6746 H       
  38 H38            3.2720     0.8083     0.2589 H       
  39 H39            1.7808     2.2008    -1.0203 H       
  40 H40            1.5822     2.8767     0.6270 H       
@<TRIPOS>BOND
   1    1    2 1
   2    1   22 1
   3    1   23 1
   4    1   24 1
   5    2    3 1
   6    2   20 1
   7    2   25 1
   8    3    4 2
   9    3    7 1
  10    4    5 1
  11    5    6 2
  12    5   13 1
  13    6    7 1
  14    7    8 1
  15    8    9 1
  16    8   26 1
  17    8   27 1
  18    9   10 1
  19    9   11 2
  20   10   12 1
  21   12   28 1
  22   12   29 1
  23   12   30 1
  24   13   14 ar
  25   13   15 ar
  26   14   18 ar
  27   14   31 1
  28   15   16 ar
  29   15   32 1
  30   16   17 ar
  31   16   33 1
  32   17   18 ar
  33   17   19 1
  34   18   34 1
  35   20   21 1
  36   20   35 1
  37   20   36 1
  38   21   22 1
  39   21   37 1
  40   21   38 1
  41   22   39 1
  42   22   40 1

#	End of record

