#	Name: ASD07930336
#	Creating user name:	WinNT
#	Creation time:	15. 06. 2019 21:12

#	Modifying user name:	WinNT
#	Modification time:	15. 06. 2019 21:12

#	Program:	/corina/corina34_cracker 3.40 0067  02.08.2006

@<TRIPOS>MOLECULE
ASD07930336
  47   48    0    0    0
SMALL
NO_CHARGES


@<TRIPOS>ATOM
   1 N1            -0.0178     1.4625     0.0101 N.pl3   
   2 C2             0.0021    -0.0041     0.0020 C.3     
   3 C3             0.7718    -0.5048     1.2325 C.3     
   4 S4             2.4285     0.2504     1.2124 S.o2    
   5 N5             2.0919     1.8640     0.9683 N.am    
   6 C6             1.1578     2.1624     0.0026 C.2     
   7 C7            -1.4106    -0.5271     0.0446 C.ar    
   8 C8            -2.4368     0.2083    -0.5175 C.ar    
   9 C9            -3.7337    -0.2719    -0.4784 C.ar    
  10 C10           -4.0025    -1.4878     0.1234 C.ar    
  11 C11           -2.9753    -2.2227     0.6855 C.ar    
  12 C12           -1.6790    -1.7452     0.6411 C.ar    
  13 C13            2.7573     2.9137     1.7441 C.3     
  14 O14            3.0216     0.2000     2.5027 O.2     
  15 O15            3.1487    -0.1441     0.0527 O.2     
  16 C16            0.6936    -0.4990    -1.2699 C.3     
  17 Br17          -5.1384     0.7341    -1.2469 Br      
  18 N18            1.3895     3.0980    -0.9052 N.2     
  19 O19            0.7026     4.3249    -2.7604 O.3     
  20 C20           -0.3264     4.5641    -3.7227 C.3     
  21 C21           -1.6061     4.9965    -3.0041 C.3     
  22 C22            0.1189     5.6704    -4.6812 C.3     
  23 C23           -0.5938     3.2816    -4.5130 C.3     
  24 C24            0.4665     3.3713    -1.8351 C.2     
  25 O25           -0.5860     2.7598    -1.8463 O.2     
  26 H26           -0.8643     1.9361     0.0167 H       
  27 H27            0.2449    -0.2114     2.1405 H       
  28 H28            0.8620    -1.5903     1.1933 H       
  29 H29           -2.2265     1.1579    -0.9870 H       
  30 H30           -5.0148    -1.8629     0.1546 H       
  31 H31           -3.1852    -3.1722     1.1555 H       
  32 H32           -0.8768    -2.3196     1.0803 H       
  33 H33            3.6679     3.2228     1.2309 H       
  34 H34            2.0893     3.7690     1.8458 H       
  35 H35            3.0096     2.5302     2.7326 H       
  36 H36            1.7160    -0.1220    -1.2978 H       
  37 H37            0.7080    -1.5889    -1.2751 H       
  38 H38            0.1496    -0.1386    -2.1430 H       
  39 H39           -1.4156     5.9101    -2.4410 H       
  40 H40           -2.3910     5.1790    -3.7381 H       
  41 H41           -1.9233     4.2083    -2.3212 H       
  42 H42            1.0305     5.3624    -5.1931 H       
  43 H43           -0.6660     5.8529    -5.4152 H       
  44 H44            0.3093     6.5841    -4.1181 H       
  45 H45           -0.9110     2.4935    -3.8301 H       
  46 H46           -1.3787     3.4641    -5.2470 H       
  47 H47            0.3179     2.9736    -5.0249 H       
@<TRIPOS>BOND
   1    1    2 1
   2    1    6 1
   3    1   26 1
   4    2    3 1
   5    2    7 1
   6    2   16 1
   7    3    4 1
   8    3   27 1
   9    3   28 1
  10    4    5 am
  11    4   14 2
  12    4   15 2
  13    5    6 1
  14    5   13 1
  15    6   18 2
  16    7    8 ar
  17    7   12 ar
  18    8    9 ar
  19    8   29 1
  20    9   10 ar
  21    9   17 1
  22   10   11 ar
  23   10   30 1
  24   11   12 ar
  25   11   31 1
  26   12   32 1
  27   13   33 1
  28   13   34 1
  29   13   35 1
  30   16   36 1
  31   16   37 1
  32   16   38 1
  33   18   24 1
  34   19   20 1
  35   19   24 1
  36   20   21 1
  37   20   22 1
  38   20   23 1
  39   21   39 1
  40   21   40 1
  41   21   41 1
  42   22   42 1
  43   22   43 1
  44   22   44 1
  45   23   45 1
  46   23   46 1
  47   23   47 1
  48   24   25 2

#	End of record

