#	Name: ASD00071052
#	Creating user name:	WinNT
#	Creation time:	15. 06. 2019 18:30

#	Modifying user name:	WinNT
#	Modification time:	15. 06. 2019 18:30

#	Program:	/corina/corina34_cracker 3.40 0067  02.08.2006

@<TRIPOS>MOLECULE
ASD00071052
  39   41    0    0    0
SMALL
NO_CHARGES


@<TRIPOS>ATOM
   1 N1             0.9590     1.2430     1.3097 N.ar    
   2 C2             1.1119    -0.0633     1.2413 C.ar    
   3 C3             1.0440    -0.7447     0.0165 C.ar    
   4 C4             0.8153    -0.0536    -1.1340 C.ar    
   5 C5             0.6518     1.3464    -1.0543 C.ar    
   6 N6             0.4249     2.0761    -2.1484 N.ar    
   7 C7             0.2717     3.3768    -2.0807 C.ar    
   8 C8             0.3381     4.0574    -0.8674 C.ar    
   9 C9             0.5677     3.3687     0.2897 C.ar    
  10 C10            0.7322     1.9723     0.2127 C.ar    
  11 N11            1.3455    -0.7809     2.4049 N.pl3   
  12 C12            1.2245    -2.2402    -0.0255 C.3     
  13 C13            0.9734    -2.7375    -1.4258 C.ar    
  14 C14            2.0282    -2.8676    -2.3160 C.ar    
  15 C15            1.7943    -3.3257    -3.6049 C.ar    
  16 C16            0.5115    -3.6519    -4.0013 C.ar    
  17 C17           -0.5415    -3.5230    -3.1159 C.ar    
  18 C18           -0.3119    -3.0709    -1.8241 C.ar    
  19 O19           -1.3471    -2.9496    -0.9520 O.3     
  20 C20           -2.6442    -3.3111    -1.4305 C.3     
  21 O21            3.2900    -2.5465    -1.9268 O.3     
  22 C22            4.3280    -2.7051    -2.8961 C.3     
  23 H23            0.7607    -0.5638    -2.0843 H       
  24 H24            0.0899     3.9338    -2.9880 H       
  25 H25            0.2085     5.1293    -0.8414 H       
  26 H26            0.6217     3.8816     1.2385 H       
  27 H27            1.4763    -0.3137     3.2448 H       
  28 H28            1.3782    -1.7500     2.3787 H       
  29 H29            2.2424    -2.4918     0.2723 H       
  30 H30            0.5189    -2.7108     0.6592 H       
  31 H31            2.6157    -3.4269    -4.2988 H       
  32 H32            0.3315    -4.0079    -5.0049 H       
  33 H33           -1.5433    -3.7787    -3.4280 H       
  34 H34           -2.9047    -2.6841    -2.2832 H       
  35 H35           -2.6401    -4.3572    -1.7366 H       
  36 H36           -3.3773    -3.1677    -0.6367 H       
  37 H37            4.3749    -3.7477    -3.2109 H       
  38 H38            4.1183    -2.0740    -3.7597 H       
  39 H39            5.2825    -2.4148    -2.4571 H       
@<TRIPOS>BOND
   1    1    2 ar
   2    1   10 ar
   3    2    3 ar
   4    2   11 1
   5    3    4 ar
   6    3   12 1
   7    4    5 ar
   8    4   23 1
   9    5    6 ar
  10    5   10 ar
  11    6    7 ar
  12    7    8 ar
  13    7   24 1
  14    8    9 ar
  15    8   25 1
  16    9   10 ar
  17    9   26 1
  18   11   27 1
  19   11   28 1
  20   12   13 1
  21   12   29 1
  22   12   30 1
  23   13   14 ar
  24   13   18 ar
  25   14   15 ar
  26   14   21 1
  27   15   16 ar
  28   15   31 1
  29   16   17 ar
  30   16   32 1
  31   17   18 ar
  32   17   33 1
  33   18   19 1
  34   19   20 1
  35   20   34 1
  36   20   35 1
  37   20   36 1
  38   21   22 1
  39   22   37 1
  40   22   38 1
  41   22   39 1

#	End of record

