#	Name: ASD02198529
#	Creating user name:	WinNT
#	Creation time:	15. 06. 2019 20:19

#	Modifying user name:	WinNT
#	Modification time:	15. 06. 2019 20:19

#	Program:	/corina/corina34_cracker 3.40 0067  02.08.2006

@<TRIPOS>MOLECULE
ASD02198529
  48   51    0    0    0
SMALL
NO_CHARGES


@<TRIPOS>ATOM
   1 C1            -0.1048     0.9990     0.1520 C.2     
   2 C2            -0.3342    -0.3363     0.2229 C.2     
   3 N3            -1.5954    -0.8242     0.2182 N.pl3   
   4 N4            -2.6376    -0.0811     0.1487 N.2     
   5 C5            -2.5576     1.2299     0.0757 C.2     
   6 C6            -1.2268     1.8593     0.0797 C.2     
   7 C7            -1.7716    -2.2098     0.2925 C.ar    
   8 C8            -0.8510    -4.4242     0.2851 C.ar    
   9 C9            -2.1201    -4.9509     0.4395 C.ar    
  10 C10           -3.2165    -4.1109     0.5149 C.ar    
  11 C11           -3.0461    -2.7427     0.4419 C.ar    
  12 C12           -3.7800     2.0551    -0.0031 C.2     
  13 N13           -4.9096     1.7669    -0.7163 N.pl3   
  14 N14           -5.8206     2.8109    -0.5126 N.2     
  15 C15           -5.2766     3.6947     0.2855 C.2     
  16 C16           -3.9985     3.2573     0.6332 C.2     
  17 C17           -5.1185     0.6313    -1.5092 C.ar    
  18 C18           -4.1072     0.1670    -2.3399 C.ar    
  19 O19           -1.0959     3.0724     0.0139 O.2     
  20 C20           -6.3355    -0.0359    -1.4620 C.ar    
  21 C21           -6.5384    -1.1553    -2.2451 C.ar    
  22 C22           -5.5313    -1.6118    -3.0755 C.ar    
  23 C23           -4.3163    -0.9529    -3.1205 C.ar    
  24 C24           -0.6735    -3.0565     0.2114 C.ar    
  25 C25            1.2983     1.5488     0.1563 C.3     
  26 F26           -0.0870    -6.6714     0.3070 F       
  27 F27            0.9903    -5.1568    -1.0214 F       
  28 C28            0.3405    -5.3433     0.2034 C.3     
  29 F29            1.2243    -5.0551     1.2489 F       
  30 O30            2.2321     0.4705     0.2422 O.3     
  31 C31            3.5996     0.8854     0.2534 C.3     
  32 H32            0.5011    -1.0182     0.2836 H       
  33 H33           -2.2558    -6.0206     0.5010 H       
  34 H34           -4.2064    -4.5255     0.6355 H       
  35 H35           -3.9025    -2.0873     0.5012 H       
  36 H36           -5.7419     4.6094     0.6219 H       
  37 H37           -3.3031     3.7715     1.2800 H       
  38 H38           -3.1582     0.6814    -2.3757 H       
  39 H39           -7.1223     0.3199    -0.8134 H       
  40 H40           -7.4845    -1.6749    -2.2086 H       
  41 H41           -5.6923    -2.4876    -3.6867 H       
  42 H42           -3.5318    -1.3117    -3.7703 H       
  43 H43            0.3181    -2.6458     0.0904 H       
  44 H44            1.4723     2.1077    -0.7632 H       
  45 H45            1.4269     2.2099     1.0133 H       
  46 H46            4.2445     0.0092     0.3203 H       
  47 H47            3.8213     1.4306    -0.6640 H       
  48 H48            3.7758     1.5328     1.1124 H       
@<TRIPOS>BOND
   1    1    2 2
   2    1   25 1
   3    1    6 1
   4    2    3 1
   5    2   32 1
   6    3    4 1
   7    3    7 1
   8    4    5 2
   9    5    6 1
  10    5   12 1
  11    6   19 2
  12    7   24 ar
  13    7   11 ar
  14    8    9 ar
  15    8   28 1
  16    8   24 ar
  17    9   10 ar
  18    9   33 1
  19   10   11 ar
  20   10   34 1
  21   11   35 1
  22   12   13 1
  23   12   16 2
  24   13   14 1
  25   13   17 1
  26   14   15 2
  27   15   16 1
  28   15   36 1
  29   16   37 1
  30   17   20 ar
  31   17   18 ar
  32   18   23 ar
  33   18   38 1
  34   20   21 ar
  35   20   39 1
  36   21   22 ar
  37   21   40 1
  38   22   23 ar
  39   22   41 1
  40   23   42 1
  41   24   43 1
  42   25   30 1
  43   25   44 1
  44   25   45 1
  45   26   28 1
  46   27   28 1
  47   28   29 1
  48   30   31 1
  49   31   46 1
  50   31   47 1
  51   31   48 1

#	End of record

