#	Name: ASD04591073
#	Creating user name:	WinNT
#	Creation time:	15. 06. 2019 20:52

#	Modifying user name:	WinNT
#	Modification time:	15. 06. 2019 20:52

#	Program:	/corina/corina34_cracker 3.40 0067  02.08.2006

@<TRIPOS>MOLECULE
ASD04591073
  67   73    0    0    0
SMALL
NO_CHARGES


@<TRIPOS>ATOM
   1 N1            -2.3446    -2.6610     0.0029 N.ar    
   2 C2            -1.1813    -2.0227     0.0078 C.ar    
   3 N3            -0.0235    -2.6625    -0.0204 N.ar    
   4 C4             0.0151    -3.9912    -0.0548 C.ar    
   5 C5            -1.2040    -4.6987    -0.0605 C.ar    
   6 C6            -2.3963    -3.9824    -0.0304 C.ar    
   7 N7             1.0439    -4.8996    -0.0886 N.pl3   
   8 C8             0.5477    -6.1915    -0.1167 C.ar    
   9 C9            -0.8569    -6.1250    -0.1006 C.ar    
  10 C10            1.1510    -7.4419    -0.1553 C.ar    
  11 N11            0.4205    -8.5380    -0.1767 N.ar    
  12 C12           -0.9005    -8.5101    -0.1626 C.ar    
  13 C13           -1.5851    -7.3140    -0.1233 C.ar    
  14 N14           -1.1790    -0.6381     0.0433 N.pl3   
  15 C15           -2.3813     0.0640    -0.0469 C.ar    
  16 N16           -3.5119    -0.5840    -0.2732 N.ar    
  17 N17           -4.6403     0.0209    -0.3637 N.ar    
  18 C18           -4.7484     1.3334    -0.2369 C.ar    
  19 C19           -3.6098     2.1041     0.0037 C.ar    
  20 C20           -2.3943     1.4511     0.1070 C.ar    
  21 N21           -5.9956     1.9448    -0.3436 N.3     
  22 C22            2.4668    -4.5507    -0.0947 C.3     
  23 C23           -6.2946     2.7428     0.8523 C.3     
  24 C24            2.7935    -3.6911    -1.3284 C.3     
  25 C25            3.3197    -2.3413    -0.7983 C.3     
  26 C26            3.8450    -2.6696     0.6213 C.3     
  27 C27            2.8059    -3.6932     1.1421 C.3     
  28 C28           -7.0482     0.9526    -0.5967 C.3     
  29 C29           -8.3759     1.6694    -0.8522 C.3     
  30 C30           -8.7341     2.5207     0.3691 C.3     
  31 C31           -7.5999     3.5130     0.6400 C.3     
  32 N32           -9.9780     3.2567     0.1067 N.3     
  33 C33          -11.0745     2.3341    -0.2418 C.3     
  34 C34          -11.9994     3.1910     0.6339 C.3     
  35 C35          -10.6956     3.5462     1.3622 C.3     
  36 O36          -12.6038     4.2888    -0.0529 O.3     
  37 H37           -3.3465    -4.4957    -0.0343 H       
  38 H38            2.2283    -7.5163    -0.1682 H       
  39 H39           -1.4523    -9.4383    -0.1814 H       
  40 H40           -2.6649    -7.2982    -0.1119 H       
  41 H41           -0.3415    -0.1566     0.1309 H       
  42 H42           -3.6761     3.1768     0.1101 H       
  43 H43           -1.4822     1.9990     0.2925 H       
  44 H44            3.0730    -5.4565    -0.0996 H       
  45 H45           -6.3986     2.0822     1.7130 H       
  46 H46           -5.4822     3.4472     1.0313 H       
  47 H47            3.5589    -4.1794    -1.9316 H       
  48 H48            1.8934    -3.5335    -1.9227 H       
  49 H49            4.1289    -1.9732    -1.4289 H       
  50 H50            2.5123    -1.6108    -0.7469 H       
  51 H51            4.8374    -3.1177     0.5719 H       
  52 H52            3.8540    -1.7764     1.2460 H       
  53 H53            1.9155    -3.1810     1.5069 H       
  54 H54            3.2401    -4.3117     1.9276 H       
  55 H55           -6.7832     0.3568    -1.4701 H       
  56 H56           -7.1486     0.3004     0.2708 H       
  57 H57           -8.2803     2.3114    -1.7279 H       
  58 H58           -9.1602     0.9323    -1.0246 H       
  59 H59           -8.8680     1.8748     1.2368 H       
  60 H60           -7.8296     4.0931     1.5338 H       
  61 H61           -7.4920     4.1840    -0.2122 H       
  62 H62          -11.3380     2.3525    -1.2993 H       
  63 H63          -10.9293     1.3233     0.1395 H       
  64 H64          -12.7040     2.6160     1.2348 H       
  65 H65          -10.4493     2.8590     2.1716 H       
  66 H66          -10.6379     4.5920     1.6641 H       
  67 H67          -13.1858     4.8269     0.5009 H       
@<TRIPOS>BOND
   1    1    2 ar
   2    1    6 ar
   3    2    3 ar
   4    2   14 1
   5    3    4 ar
   6    4    5 ar
   7    4    7 1
   8    5    6 ar
   9    5    9 1
  10    6   37 1
  11    7    8 1
  12    7   22 1
  13    8    9 ar
  14    8   10 ar
  15    9   13 ar
  16   10   11 ar
  17   10   38 1
  18   11   12 ar
  19   12   13 ar
  20   12   39 1
  21   13   40 1
  22   14   15 1
  23   14   41 1
  24   15   16 ar
  25   15   20 ar
  26   16   17 ar
  27   17   18 ar
  28   18   19 ar
  29   18   21 1
  30   19   20 ar
  31   19   42 1
  32   20   43 1
  33   21   28 1
  34   21   23 1
  35   22   24 1
  36   22   27 1
  37   22   44 1
  38   23   31 1
  39   23   45 1
  40   23   46 1
  41   24   25 1
  42   24   47 1
  43   24   48 1
  44   25   26 1
  45   25   49 1
  46   25   50 1
  47   26   27 1
  48   26   51 1
  49   26   52 1
  50   27   53 1
  51   27   54 1
  52   28   29 1
  53   28   55 1
  54   28   56 1
  55   29   30 1
  56   29   57 1
  57   29   58 1
  58   30   31 1
  59   30   32 1
  60   30   59 1
  61   31   60 1
  62   31   61 1
  63   32   33 1
  64   32   35 1
  65   33   34 1
  66   33   62 1
  67   33   63 1
  68   34   35 1
  69   34   36 1
  70   34   64 1
  71   35   65 1
  72   35   66 1
  73   36   67 1

#	End of record

