#	Name: ASD00431214
#	Creating user name:	WinNT
#	Creation time:	15. 06. 2019 18:35

#	Modifying user name:	WinNT
#	Modification time:	15. 06. 2019 18:35

#	Program:	/corina/corina34_cracker 3.40 0067  02.08.2006

@<TRIPOS>MOLECULE
ASD00431214
  47   49    0    0    0
SMALL
NO_CHARGES


@<TRIPOS>ATOM
   1 N1             0.0394     1.2128     0.1755 N.am    
   2 C2             0.0762    -0.1343     0.1928 C.2     
   3 O3             1.1451    -0.7135     0.1796 O.2     
   4 N4            -1.0720    -0.8395     0.2246 N.am    
   5 C5             1.2874     1.9793     0.1408 C.3     
   6 C6             1.7596     2.1198    -1.3077 C.3     
   7 O7            -0.0271     4.1213     0.5466 O.3     
   8 N8             0.0640     5.1695     1.1423 N.2     
   9 C9             1.1986     5.2495     1.7980 C.2     
  10 C10            1.8910     4.0312     1.5376 C.2     
  11 C11            1.0531     3.3474     0.7277 C.2     
  12 S12            3.1936     6.4558     3.5047 S.3     
  13 C13            2.7878     8.0078     4.0952 C.2     
  14 N14            1.6221     8.3672     3.6531 N.2     
  15 C15            0.9908     7.5200     2.8702 C.2     
  16 C16            1.6633     6.3738     2.6354 C.2     
  17 O17            3.5712     8.7556     4.9084 O.3     
  18 C18            3.1578    10.0140     5.2120 C.ar    
  19 C19            2.0082    10.2044     5.9639 C.ar    
  20 C20            1.5895    11.4892     6.2723 C.ar    
  21 C21            2.3212    12.5818     5.8281 C.ar    
  22 C22            3.4660    12.3896     5.0788 C.ar    
  23 C23            3.8888    11.1096     4.7747 C.ar    
  24 O24            0.4631    11.6790     7.0086 O.3     
  25 C25            0.1652    13.0193     7.4047 C.3     
  26 C26           -0.7769    13.6561     6.3811 C.3     
  27 C27           -0.5075    13.0074     8.7788 C.3     
  28 H28           -0.8135     1.6748     0.1819 H       
  29 H29           -1.9248    -0.3774     0.2351 H       
  30 H30           -1.0455    -1.8090     0.2371 H       
  31 H31            2.0490     1.4600     0.7225 H       
  32 H32            0.9980     2.6391    -1.8894 H       
  33 H33            2.6881     2.6901    -1.3334 H       
  34 H34            1.9290     1.1303    -1.7322 H       
  35 H35            2.8603     3.7256     1.9028 H       
  36 H36            0.0166     7.7241     2.4510 H       
  37 H37            1.4400     9.3530     6.3084 H       
  38 H38            1.9953    13.5830     6.0682 H       
  39 H39            4.0337    13.2411     4.7338 H       
  40 H40            4.7866    10.9618     4.1929 H       
  41 H41            1.0884    13.5964     7.4571 H       
  42 H42           -1.0042    14.6785     6.6832 H       
  43 H43           -0.2976    13.6646     5.4022 H       
  44 H44           -1.7001    13.0790     6.3287 H       
  45 H45            0.1636    12.5537     9.5080 H       
  46 H46           -0.7348    14.0297     9.0809 H       
  47 H47           -1.4307    12.4303     8.7264 H       
@<TRIPOS>BOND
   1    1    2 am
   2    1    5 1
   3    1   28 1
   4    2    3 2
   5    2    4 am
   6    4   29 1
   7    4   30 1
   8    5    6 1
   9    5   11 1
  10    5   31 1
  11    6   32 1
  12    6   33 1
  13    6   34 1
  14    7    8 1
  15    7   11 1
  16    8    9 2
  17    9   10 1
  18    9   16 1
  19   10   11 2
  20   10   35 1
  21   12   13 1
  22   12   16 1
  23   13   14 2
  24   13   17 1
  25   14   15 1
  26   15   16 2
  27   15   36 1
  28   17   18 1
  29   18   19 ar
  30   18   23 ar
  31   19   20 ar
  32   19   37 1
  33   20   21 ar
  34   20   24 1
  35   21   22 ar
  36   21   38 1
  37   22   23 ar
  38   22   39 1
  39   23   40 1
  40   24   25 1
  41   25   26 1
  42   25   27 1
  43   25   41 1
  44   26   42 1
  45   26   43 1
  46   26   44 1
  47   27   45 1
  48   27   46 1
  49   27   47 1

#	End of record

