#	Name: ASD05720208
#	Creating user name:	WinNT
#	Creation time:	15. 06. 2019 21:02

#	Modifying user name:	WinNT
#	Modification time:	15. 06. 2019 21:02

#	Program:	/corina/corina34_cracker 3.40 0067  02.08.2006

@<TRIPOS>MOLECULE
ASD05720208
  50   55    0    0    0
SMALL
NO_CHARGES


@<TRIPOS>ATOM
   1 O1            -0.0161     1.3334     0.0094 O.3     
   2 C2             0.0021    -0.0041     0.0020 C.2     
   3 N3             1.2348    -0.5293    -0.0126 N.am    
   4 C4             2.2183     0.5645    -0.0161 C.3     
   5 C5             1.3508     1.8379    -0.0010 C.3     
   6 O6            -1.0069    -0.6808     0.0084 O.2     
   7 C7             3.0621     0.5136    -1.2636 C.ar    
   8 C8             4.4174     0.7765    -1.1919 C.ar    
   9 C9             5.1924     0.7297    -2.3352 C.ar    
  10 C10            4.6109     0.4193    -3.5528 C.ar    
  11 C11            3.2534     0.1562    -3.6234 C.ar    
  12 C12            2.4814     0.1984    -2.4779 C.ar    
  13 F13            5.3674     0.3737    -4.6712 F       
  14 C14            3.0997    -3.5829    -0.0460 C.2     
  15 N15            2.7934    -2.2820    -0.0360 N.2     
  16 C16            1.5348    -1.8852    -0.0223 C.2     
  17 C17            0.4949    -2.8369    -0.0171 C.2     
  18 C18            0.8012    -4.1541    -0.0267 C.2     
  19 N19            2.1144    -4.5345    -0.0412 N.pl3   
  20 N20            2.7295    -5.7914    -0.0540 N.2     
  21 C21            4.0305    -5.6366    -0.0661 C.2     
  22 C22            4.3228    -4.2670    -0.0674 C.2     
  23 C23            5.6705    -3.6564    -0.0855 C.ar    
  24 C24            6.6413    -4.0804     0.8248 C.ar    
  25 C25            7.8947    -3.5130     0.8084 C.ar    
  26 C26            8.1964    -2.5121    -0.1193 C.ar    
  27 C27            7.2246    -2.0882    -1.0300 C.ar    
  28 C28            5.9732    -2.6603    -1.0165 C.ar    
  29 O29            9.9683    -0.9313    -0.9739 O.3     
  30 C30            9.5408    -1.9026    -0.1370 C.2     
  31 N31           10.5402    -2.2033     0.6568 N.2     
  32 N32           11.5574    -1.4744     0.3579 N.2     
  33 C33           11.2478    -0.6794    -0.6387 C.2     
  34 N34           12.0819     0.2461    -1.2354 N.pl3   
  35 H35            2.8457     0.5180     0.8740 H       
  36 H36            1.5314     2.4339    -0.8956 H       
  37 H37            1.5485     2.4243     0.8964 H       
  38 H38            4.8707     1.0190    -0.2421 H       
  39 H39            6.2511     0.9355    -2.2790 H       
  40 H40            2.7987    -0.0861    -4.5726 H       
  41 H41            1.4232    -0.0109    -2.5321 H       
  42 H42           -0.5367    -2.5172    -0.0052 H       
  43 H43            0.0175    -4.8972    -0.0225 H       
  44 H44            4.7583    -6.4345    -0.0772 H       
  45 H45            6.4079    -4.8536     1.5418 H       
  46 H46            8.6452    -3.8407     1.5126 H       
  47 H47            7.4570    -1.3146    -1.7469 H       
  48 H48            5.2237    -2.3361    -1.7233 H       
  49 H49           11.7568     0.7890    -1.9705 H       
  50 H50           12.9927     0.3529    -0.9192 H       
@<TRIPOS>BOND
   1    1    2 1
   2    1    5 1
   3    2    3 am
   4    2    6 2
   5    3    4 1
   6    3   16 1
   7    4    5 1
   8    4    7 1
   9    4   35 1
  10    5   36 1
  11    5   37 1
  12    7    8 ar
  13    7   12 ar
  14    8    9 ar
  15    8   38 1
  16    9   10 ar
  17    9   39 1
  18   10   11 ar
  19   10   13 1
  20   11   12 ar
  21   11   40 1
  22   12   41 1
  23   14   15 1
  24   14   19 1
  25   14   22 2
  26   15   16 2
  27   16   17 1
  28   17   18 2
  29   17   42 1
  30   18   19 1
  31   18   43 1
  32   19   20 1
  33   20   21 2
  34   21   22 1
  35   21   44 1
  36   22   23 1
  37   23   24 ar
  38   23   28 ar
  39   24   25 ar
  40   24   45 1
  41   25   26 ar
  42   25   46 1
  43   26   27 ar
  44   26   30 1
  45   27   28 ar
  46   27   47 1
  47   28   48 1
  48   29   30 1
  49   29   33 1
  50   30   31 2
  51   31   32 1
  52   32   33 2
  53   33   34 1
  54   34   49 1
  55   34   50 1

#	End of record

