#	Name: ASD09080058
#	Creating user name:	WinNT
#	Creation time:	15. 06. 2019 21:20

#	Modifying user name:	WinNT
#	Modification time:	15. 06. 2019 21:20

#	Program:	/corina/corina34_cracker 3.40 0067  02.08.2006

@<TRIPOS>MOLECULE
ASD09080058
  57   58    0    0    0
SMALL
NO_CHARGES


@<TRIPOS>ATOM
   1 N1            -0.0178     1.4648     0.0101 N.3     
   2 C2             3.5043    -4.4096     1.7872 C.ar    
   3 C3             3.8627    -5.2759     0.7742 C.ar    
   4 C4             3.8671    -4.8346    -0.5474 C.ar    
   5 C5             3.5091    -3.5199    -0.8387 C.ar    
   6 C6             3.1525    -2.6622     0.1820 C.ar    
   7 C7             3.1499    -3.1055     1.4923 C.ar    
   8 C8             2.7591    -2.1644     2.6025 C.3     
   9 C9             1.2499    -2.2524     2.8380 C.3     
  10 C10            0.8711    -1.3922     4.0454 C.3     
  11 N11            0.5413    -1.7671     1.6512 N.am    
  12 C12           -0.6381    -1.4802     4.2809 C.3     
  13 O13           -1.0201    -2.8506     4.4153 O.3     
  14 O14            1.5623    -1.8656     5.2031 O.3     
  15 C15            0.7309    -0.5033     1.2229 C.2     
  16 C16            0.0021    -0.0041     0.0020 C.3     
  17 O17            1.4882     0.2322     1.8201 O.2     
  18 C18            4.2519    -5.7613    -1.6406 C.ar    
  19 C19            4.2562    -5.3198    -2.9620 C.ar    
  20 C20            4.6152    -6.1863    -3.9763 C.ar    
  21 C21            4.9704    -7.4912    -3.6814 C.ar    
  22 C22            4.9677    -7.9346    -2.3702 C.ar    
  23 C23            4.6158    -7.0741    -1.3484 C.ar    
  24 Cl24           4.6204    -5.6378    -5.6233 Cl      
  25 Cl25           5.4144    -9.5727    -2.0084 Cl      
  26 C26            0.7182    -0.4975    -1.2568 C.3     
  27 C27           -0.9942    -0.7335     5.5405 C.2     
  28 O28           -1.4377    -1.3314     6.4923 O.2     
  29 O29           -0.8188     0.5957     5.6052 O.3     
  30 C30           -0.9153     2.7509     6.7348 C.3     
  31 C31           -1.1834     1.2490     6.8496 C.3     
  32 H32            0.9191     1.8392     0.0032 H       
  33 H33           -0.5563     1.8234    -0.7642 H       
  34 H34            3.4963    -4.7519     2.8115 H       
  35 H35            4.1397    -6.2938     1.0056 H       
  36 H36            3.5111    -3.1726    -1.8614 H       
  37 H37            2.8748    -1.6429    -0.0426 H       
  38 H38            3.2860    -2.4411     3.5157 H       
  39 H39            3.0246    -1.1445     2.3246 H       
  40 H40            0.9717    -3.2889     3.0288 H       
  41 H41            1.1493    -0.3557     3.8546 H       
  42 H42           -0.0643    -2.3553     1.1735 H       
  43 H43           -1.1642    -1.0375     3.4351 H       
  44 H44           -0.5895    -3.3087     5.1499 H       
  45 H45            1.3623    -2.7834     5.4326 H       
  46 H46           -1.0205    -0.3814     0.0098 H       
  47 H47            3.9789    -4.3019    -3.1931 H       
  48 H48            5.2501    -8.1658    -4.4771 H       
  49 H49            4.6140    -7.4210    -0.3256 H       
  50 H50            0.7330    -1.5874    -1.2628 H       
  51 H51            0.1910    -0.1364    -2.1398 H       
  52 H52            1.7408    -0.1202    -1.2645 H       
  53 H53            0.1431     2.9168     6.5338 H       
  54 H54           -1.5091     3.1647     5.9197 H       
  55 H55           -1.1890     3.2413     7.6690 H       
  56 H56           -2.2418     1.0831     7.0506 H       
  57 H57           -0.5896     0.8352     7.6647 H       
@<TRIPOS>BOND
   1    1   16 1
   2    1   32 1
   3    1   33 1
   4    2    3 ar
   5    2    7 ar
   6    2   34 1
   7    3    4 ar
   8    3   35 1
   9    4    5 ar
  10    4   18 1
  11    5    6 ar
  12    5   36 1
  13    6    7 ar
  14    6   37 1
  15    7    8 1
  16    8    9 1
  17    8   38 1
  18    8   39 1
  19    9   10 1
  20    9   11 1
  21    9   40 1
  22   10   12 1
  23   10   14 1
  24   10   41 1
  25   11   15 am
  26   11   42 1
  27   12   13 1
  28   12   27 1
  29   12   43 1
  30   13   44 1
  31   14   45 1
  32   15   16 1
  33   15   17 2
  34   16   26 1
  35   16   46 1
  36   18   19 ar
  37   18   23 ar
  38   19   20 ar
  39   19   47 1
  40   20   21 ar
  41   20   24 1
  42   21   22 ar
  43   21   48 1
  44   22   23 ar
  45   22   25 1
  46   23   49 1
  47   26   50 1
  48   26   51 1
  49   26   52 1
  50   27   28 2
  51   27   29 1
  52   29   31 1
  53   30   31 1
  54   30   53 1
  55   30   54 1
  56   30   55 1
  57   31   56 1
  58   31   57 1

#	End of record

