#	Name: ASD01900145
#	Creating user name:	WinNT
#	Creation time:	15. 06. 2019 19:51

#	Modifying user name:	WinNT
#	Modification time:	15. 06. 2019 19:51

#	Program:	/corina/corina34_cracker 3.40 0067  02.08.2006

@<TRIPOS>MOLECULE
ASD01900145
  43   45    0    0    0
SMALL
NO_CHARGES


@<TRIPOS>ATOM
   1 C1            -0.0837     1.2230     0.5377 C.2     
   2 N2             0.0056     0.0102    -0.0434 N.am    
   3 O3             0.8939     1.7190     1.0622 O.2     
   4 C4             1.2466    -0.6298    -0.1399 C.ar    
   5 C5             1.3249    -2.0118    -0.0308 C.ar    
   6 C6             2.5529    -2.6443    -0.1268 C.ar    
   7 C7             3.7075    -1.8921    -0.3328 C.ar    
   8 C8             3.6248    -0.5113    -0.4413 C.ar    
   9 C9             2.3984     0.1174    -0.3506 C.ar    
  10 N10            4.9520    -2.5300    -0.4300 N.am    
  11 C11            6.0800    -1.8559    -0.1302 C.2     
  12 O12            2.6319    -3.9975    -0.0198 O.3     
  13 C13            1.4080    -4.7042     0.1913 C.3     
  14 C14            7.3979    -2.4867    -0.3495 C.ar    
  15 O15            6.0130    -0.7287     0.3207 O.2     
  16 C16            8.5692    -1.7909    -0.0400 C.ar    
  17 C17            9.7977    -2.3877    -0.2474 C.ar    
  18 C18            9.8689    -3.6699    -0.7600 C.ar    
  19 C19            8.7118    -4.3643    -1.0686 C.ar    
  20 C20            7.4785    -3.7832    -0.8618 C.ar    
  21 Cl21           8.4810    -0.1808     0.6031 Cl      
  22 C22           -1.3720     1.9540     0.5316 C.ar    
  23 C23           -1.4580     3.2074     1.1339 C.ar    
  24 C24           -2.6685     3.8817     1.1151 C.ar    
  25 C25           -3.7517     3.2789     0.4943 C.ar    
  26 C26           -3.5941     2.0300    -0.0847 C.ar    
  27 N27           -2.4336     1.4120    -0.0524 N.ar    
  28 H28           -0.7901    -0.4191    -0.3947 H       
  29 H29            0.4287    -2.5930     0.1293 H       
  30 H30            4.5197     0.0719    -0.6010 H       
  31 H31            2.3360     1.1923    -0.4353 H       
  32 H32            5.0014    -3.4565    -0.7129 H       
  33 H33            1.6124    -5.7727     0.2584 H       
  34 H34            0.9470    -4.3635     1.1184 H       
  35 H35            0.7311    -4.5154    -0.6419 H       
  36 H36           10.7044    -1.8515    -0.0091 H       
  37 H37           10.8318    -4.1318    -0.9206 H       
  38 H38            8.7751    -5.3653    -1.4690 H       
  39 H39            6.5770    -4.3266    -1.1032 H       
  40 H40           -0.5935     3.6472     1.6091 H       
  41 H41           -2.7661     4.8545     1.5740 H       
  42 H42           -4.7090     3.7777     0.4627 H       
  43 H43           -4.4359     1.5575    -0.5691 H       
@<TRIPOS>BOND
   1    1    2 am
   2    1    3 2
   3    1   22 1
   4    2    4 1
   5    2   28 1
   6    4    5 ar
   7    4    9 ar
   8    5    6 ar
   9    5   29 1
  10    6    7 ar
  11    6   12 1
  12    7    8 ar
  13    7   10 1
  14    8    9 ar
  15    8   30 1
  16    9   31 1
  17   10   11 am
  18   10   32 1
  19   11   14 1
  20   11   15 2
  21   12   13 1
  22   13   33 1
  23   13   34 1
  24   13   35 1
  25   14   16 ar
  26   14   20 ar
  27   16   17 ar
  28   16   21 1
  29   17   18 ar
  30   17   36 1
  31   18   19 ar
  32   18   37 1
  33   19   20 ar
  34   19   38 1
  35   20   39 1
  36   22   23 ar
  37   22   27 ar
  38   23   24 ar
  39   23   40 1
  40   24   25 ar
  41   24   41 1
  42   25   26 ar
  43   25   42 1
  44   26   27 ar
  45   26   43 1

#	End of record

