#	Name: ASD01883229
#	Creating user name:	WinNT
#	Creation time:	15. 06. 2019 19:46

#	Modifying user name:	WinNT
#	Modification time:	15. 06. 2019 19:46

#	Program:	/corina/corina34_cracker 3.40 0067  02.08.2006

@<TRIPOS>MOLECULE
ASD01883229
  53   54    0    0    0
SMALL
NO_CHARGES


@<TRIPOS>ATOM
   1 N1            -0.0162     1.3417     0.0094 N.am    
   2 C2             0.0021    -0.0041     0.0020 C.2     
   3 C3            -1.2159    -0.7274     0.0102 C.2     
   4 C4            -2.4263    -0.0109     0.0261 C.2     
   5 C5            -2.3786     1.3974     0.0332 C.2     
   6 C6            -1.1852     2.0327     0.0299 C.2     
   7 O7             1.0657    -0.6000    -0.0122 O.2     
   8 C8            -1.2149    -2.1593     0.0021 C.1     
   9 N9            -1.2141    -3.2953    -0.0044 N.1     
  10 C10            1.2513     2.0763     0.0013 C.3     
  11 C11            1.6788     2.3398    -1.4440 C.3     
  12 C12            3.0025     3.1070    -1.4525 C.3     
  13 C13            3.4930     3.2616    -2.8935 C.3     
  14 C14            2.7941     4.4905    -0.8334 C.3     
  15 C15           -3.7215    -0.7207     0.0347 C.ar    
  16 C16           -4.5703    -0.6149     1.1400 C.ar    
  17 C17           -5.7804    -1.2796     1.1439 C.ar    
  18 C18           -6.1538    -2.0552     0.0451 C.ar    
  19 C19           -5.3087    -2.1602    -1.0537 C.ar    
  20 C20           -4.1028    -1.4942    -1.0646 C.ar    
  21 N21           -7.3762    -2.7263     0.0497 N.pl3   
  22 C22           -7.7692    -3.5406    -1.1029 C.3     
  23 C23           -8.7590    -4.6171    -0.6531 C.3     
  24 C24           -8.4295    -2.6487    -2.1562 C.3     
  25 O25           -6.6084    -1.1790     2.2183 O.3     
  26 C26           -6.1622    -0.3687     3.3075 C.3     
  27 H27           -3.2949     1.9690     0.0450 H       
  28 H28           -1.1610     3.1124     0.0358 H       
  29 H29            1.1243     3.0257     0.5214 H       
  30 H30            2.0168     1.4857     0.5046 H       
  31 H31            1.8057     1.3903    -1.9642 H       
  32 H32            0.9133     2.9303    -1.9474 H       
  33 H33            3.7445     2.5577    -0.8731 H       
  34 H34            2.7510     3.8109    -3.4729 H       
  35 H35            4.4361     3.8082    -2.8995 H       
  36 H36            3.6415     2.2760    -3.3345 H       
  37 H37            2.4446     4.3803     0.1931 H       
  38 H38            3.7371     5.0371    -0.8395 H       
  39 H39            2.0520     5.0398    -1.4129 H       
  40 H40           -4.2799    -0.0147     1.9896 H       
  41 H41           -5.6001    -2.7614    -1.9022 H       
  42 H42           -3.4479    -1.5773    -1.9194 H       
  43 H43           -7.9663    -2.6538     0.8162 H       
  44 H44           -6.8859    -4.0151    -1.5306 H       
  45 H45           -9.6422    -4.1427    -0.2254 H       
  46 H46           -9.0514    -5.2230    -1.5107 H       
  47 H47           -8.2886    -5.2525     0.0973 H       
  48 H48           -9.3127    -2.1743    -1.7285 H       
  49 H49           -7.7243    -1.8818    -2.4766 H       
  50 H50           -8.7218    -3.2547    -3.0137 H       
  51 H51           -5.2249    -0.7667     3.6963 H       
  52 H52           -6.0070     0.6529     2.9607 H       
  53 H53           -6.9143    -0.3743     4.0964 H       
@<TRIPOS>BOND
   1    1    2 am
   2    1   10 1
   3    1    6 1
   4    2    3 1
   5    2    7 2
   6    3    4 2
   7    3    8 1
   8    4    5 1
   9    4   15 1
  10    5    6 2
  11    5   27 1
  12    6   28 1
  13    8    9 3
  14   10   11 1
  15   10   29 1
  16   10   30 1
  17   11   12 1
  18   11   31 1
  19   11   32 1
  20   12   13 1
  21   12   14 1
  22   12   33 1
  23   13   34 1
  24   13   35 1
  25   13   36 1
  26   14   37 1
  27   14   38 1
  28   14   39 1
  29   15   16 ar
  30   15   20 ar
  31   16   17 ar
  32   16   40 1
  33   17   18 ar
  34   17   25 1
  35   18   19 ar
  36   18   21 1
  37   19   20 ar
  38   19   41 1
  39   20   42 1
  40   21   22 1
  41   21   43 1
  42   22   23 1
  43   22   24 1
  44   22   44 1
  45   23   45 1
  46   23   46 1
  47   23   47 1
  48   24   48 1
  49   24   49 1
  50   24   50 1
  51   25   26 1
  52   26   51 1
  53   26   52 1
  54   26   53 1

#	End of record

