#	Name: ASD01884750
#	Creating user name:	WinNT
#	Creation time:	15. 06. 2019 19:48

#	Modifying user name:	WinNT
#	Modification time:	15. 06. 2019 19:48

#	Program:	/corina/corina34_cracker 3.40 0067  02.08.2006

@<TRIPOS>MOLECULE
ASD01884750
  28   29    0    0    0
SMALL
NO_CHARGES


@<TRIPOS>ATOM
   1 C1            -0.0164     1.3598     0.0095 C.2     
   2 C2             0.0021    -0.0041     0.0020 C.2     
   3 C3            -1.2120    -0.7062     0.0098 C.2     
   4 C4            -2.3843    -0.0287     0.0246 C.2     
   5 N5            -2.4000     1.3293     0.0316 N.am    
   6 C6            -1.2508     2.0311     0.0308 C.2     
   7 O7            -1.2813     3.2514     0.0375 O.2     
   8 Br8           -1.2117    -2.5972    -0.0010 Br      
   9 C9             1.3125    -0.7482    -0.0149 C.3     
  10 H10            0.9081     1.9179     0.0037 H       
  11 C11           -3.6817     2.0386     0.0466 C.3     
  12 C12           -4.1085     2.2747     1.4725 C.ar    
  13 C13           -3.7243     3.4304     2.1260 C.ar    
  14 C14           -4.1152     3.6490     3.4340 C.ar    
  15 C15           -4.8913     2.7111     4.0899 C.ar    
  16 C16           -5.2768     1.5521     3.4351 C.ar    
  17 C17           -4.8887     1.3378     2.1240 C.ar    
  18 F18           -6.0351     0.6347     4.0744 F       
  19 Cl19          -5.3819     2.9850     5.7325 Cl      
  20 H20           -3.3166    -0.5739     0.0305 H       
  21 H21            1.6386    -0.9331     1.0086 H       
  22 H22            1.1839    -1.6987    -0.5326 H       
  23 H23            2.0628    -0.1509    -0.5330 H       
  24 H24           -3.5732     2.9958    -0.4634 H       
  25 H25           -4.4351     1.4385    -0.4636 H       
  26 H26           -3.1179     4.1633     1.6145 H       
  27 H27           -3.8141     4.5523     3.9437 H       
  28 H28           -5.1888     0.4352     1.6126 H       
@<TRIPOS>BOND
   1    1    2 2
   2    1   10 1
   3    1    6 1
   4    2    3 1
   5    2    9 1
   6    3    4 2
   7    3    8 1
   8    4    5 1
   9    4   20 1
  10    5    6 am
  11    5   11 1
  12    6    7 2
  13    9   21 1
  14    9   22 1
  15    9   23 1
  16   11   12 1
  17   11   24 1
  18   11   25 1
  19   12   13 ar
  20   12   17 ar
  21   13   14 ar
  22   13   26 1
  23   14   15 ar
  24   14   27 1
  25   15   16 ar
  26   15   19 1
  27   16   17 ar
  28   16   18 1
  29   17   28 1

#	End of record

