#	Name: ASD01812641
#	Creating user name:	WinNT
#	Creation time:	15. 06. 2019 19:28

#	Modifying user name:	WinNT
#	Modification time:	15. 06. 2019 19:28

#	Program:	/corina/corina34_cracker 3.40 0067  02.08.2006

@<TRIPOS>MOLECULE
ASD01812641
  53   57    0    0    0
SMALL
NO_CHARGES


@<TRIPOS>ATOM
   1 O1            -0.0163     1.3522     0.0095 O.3     
   2 C2             0.0021    -0.0041     0.0020 C.ar    
   3 C3             1.2105    -0.6847    -0.0132 C.ar    
   4 C4             1.2312    -2.0655    -0.0208 C.ar    
   5 C5             0.0448    -2.7828    -0.0128 C.ar    
   6 C6            -1.1603    -2.1223     0.0027 C.ar    
   7 C7            -1.2004    -0.7252     0.0155 C.ar    
   8 C8            -2.5947    -2.5891     0.0137 C.3     
   9 N9            -3.4200    -1.3759     0.0279 N.am    
  10 C10           -2.6104    -0.3028     0.0372 C.2     
  11 C11           -4.8845    -1.3401     0.0414 C.3     
  12 O12           -2.9891     0.8526     0.0485 O.2     
  13 C13            1.1734     2.0057     0.0016 C.ar    
  14 C14            1.8048     2.3329     1.2089 C.ar    
  15 C15            1.1984     1.9798     2.4572 C.1     
  16 C16            1.7735     2.3480    -1.2031 C.ar    
  17 C17            2.9856     3.0133    -1.2084 C.ar    
  18 C18            3.6092     3.3421    -0.0160 C.ar    
  19 C19            3.0296     3.0054     1.1881 C.ar    
  20 C20           -5.3737    -1.3358     1.4668 C.ar    
  21 C21           -5.6647    -0.1322     2.0831 C.ar    
  22 C22           -6.1137    -0.1330     3.3923 C.ar    
  23 C23           -6.2560    -1.3616     4.0435 C.ar    
  24 C24           -5.9420    -2.5304     3.3534 C.ar    
  25 N25           -5.5230    -2.4801     2.1054 N.ar    
  26 C26           -6.7331    -1.4201     5.4472 C.ar    
  27 N27            0.7174     1.6997     3.4475 N.1     
  28 F28            1.1726     2.0305    -2.3707 F       
  29 C29           -7.0499    -0.2522     6.1470 C.ar    
  30 C30           -7.4905    -0.3517     7.4505 C.ar    
  31 N31           -7.6136    -1.5277     8.0358 N.ar    
  32 C32           -7.3254    -2.6532     7.4111 C.ar    
  33 C33           -6.8837    -2.6445     6.1037 C.ar    
  34 C34           -7.4858    -3.9663     8.1329 C.3     
  35 H35            2.1387    -0.1327    -0.0195 H       
  36 H36            2.1758    -2.5889    -0.0333 H       
  37 H37            0.0677    -3.8625    -0.0192 H       
  38 H38           -2.8050    -3.1749    -0.8812 H       
  39 H39           -2.7882    -3.1845     0.9060 H       
  40 H40           -5.2306    -0.4387    -0.4642 H       
  41 H41           -5.2741    -2.2181    -0.4738 H       
  42 H42            3.4489     3.2777    -2.1475 H       
  43 H43            4.5560     3.8614    -0.0301 H       
  44 H44            3.5218     3.2608     2.1149 H       
  45 H45           -5.5424     0.7983     1.5486 H       
  46 H46           -6.3479     0.7921     3.8980 H       
  47 H47           -6.0473    -3.4865     3.8445 H       
  48 H48           -6.9507     0.7138     5.6744 H       
  49 H49           -7.7376     0.5450     7.9993 H       
  50 H50           -6.6539    -3.5700     5.5967 H       
  51 H51           -8.4948    -4.3470     7.9747 H       
  52 H52           -6.7620    -4.6840     7.7467 H       
  53 H53           -7.3165    -3.8177     9.1994 H       
@<TRIPOS>BOND
   1    1    2 1
   2    1   13 1
   3    2    3 ar
   4    2    7 ar
   5    3    4 ar
   6    3   35 1
   7    4    5 ar
   8    4   36 1
   9    5    6 ar
  10    5   37 1
  11    6    8 1
  12    6    7 ar
  13    7   10 1
  14    8    9 1
  15    8   38 1
  16    8   39 1
  17    9   10 am
  18    9   11 1
  19   10   12 2
  20   11   20 1
  21   11   40 1
  22   11   41 1
  23   13   16 ar
  24   13   14 ar
  25   14   15 1
  26   14   19 ar
  27   15   27 3
  28   16   17 ar
  29   16   28 1
  30   17   18 ar
  31   17   42 1
  32   18   19 ar
  33   18   43 1
  34   19   44 1
  35   20   21 ar
  36   20   25 ar
  37   21   22 ar
  38   21   45 1
  39   22   23 ar
  40   22   46 1
  41   23   24 ar
  42   23   26 1
  43   24   25 ar
  44   24   47 1
  45   26   29 ar
  46   26   33 ar
  47   29   30 ar
  48   29   48 1
  49   30   31 ar
  50   30   49 1
  51   31   32 ar
  52   32   33 ar
  53   32   34 1
  54   33   50 1
  55   34   51 1
  56   34   52 1
  57   34   53 1

#	End of record

