#	Name: ASD03491019
#	Creating user name:	WinNT
#	Creation time:	15. 06. 2019 20:42

#	Modifying user name:	WinNT
#	Modification time:	15. 06. 2019 20:42

#	Program:	/corina/corina34_cracker 3.40 0067  02.08.2006

@<TRIPOS>MOLECULE
ASD03491019
  60   63    0    0    0
SMALL
NO_CHARGES


@<TRIPOS>ATOM
   1 C1            -0.0387     1.3012    -0.3601 C.ar    
   2 C2             0.0870     0.0083    -0.8760 C.ar    
   3 C3             1.3209    -0.6498    -0.8051 C.ar    
   4 C4             2.4108    -0.0088    -0.2209 C.ar    
   5 C5             2.2692     1.2748     0.2865 C.ar    
   6 C6             1.0488     1.9234     0.2154 C.ar    
   7 C7             0.9078     3.3177     0.7696 C.3     
   8 N8             3.6474    -0.6590    -0.1454 N.am    
   9 C9             4.7889     0.0494    -0.2532 C.2     
  10 O10            4.7458     1.2338    -0.5173 O.2     
  11 C11            7.3473     0.1204    -0.2756 C.ar    
  12 C12            8.6380    -0.5675    -0.2149 C.ar    
  13 C13            9.8206     0.1739    -0.4445 C.ar    
  14 C14            9.7170     1.6010    -0.7346 C.ar    
  15 C15            8.4667     2.2047    -0.7804 C.ar    
  16 C16            7.3104     1.4862    -0.5572 C.ar    
  17 C17            8.7251    -1.9349     0.0643 C.ar    
  18 C18            9.9491    -2.5369     0.1118 C.ar    
  19 C19           11.1130    -1.8085    -0.1134 C.ar    
  20 C20           11.0616    -0.4737    -0.3895 C.ar    
  21 C21            1.8711     4.2563     0.0403 C.3     
  22 C22           -0.5288     3.8039     0.5677 C.3     
  23 C23            1.2378     3.3085     2.2636 C.3     
  24 C24            6.1037    -0.6209    -0.0484 C.2     
  25 O25            6.1448    -1.7824     0.3071 O.2     
  26 C26           10.9368     2.3999    -0.9780 C.ar    
  27 C27           11.0314     3.2301    -2.1026 C.ar    
  28 C28           12.1926     3.9571    -2.2852 C.ar    
  29 N29           13.0977     3.0552    -0.3035 N.ar    
  30 C30           12.0108     2.3436    -0.0880 C.ar    
  31 C31           -1.0410    -0.6405    -1.4739 C.1     
  32 N32           -1.9358    -1.1551    -1.9481 N.1     
  33 C33           13.2177     3.8426    -1.3580 C.ar    
  34 F34           14.3545     4.5515    -1.5326 F       
  35 O35            1.4541    -1.9059    -1.3027 O.3     
  36 C36            1.8404    -2.0231    -2.6735 C.3     
  37 H37           -0.9870     1.8149    -0.4163 H       
  38 H38            3.1154     1.7701     0.7394 H       
  39 H39            3.6831    -1.6196    -0.0154 H       
  40 H40            8.3984     3.2609    -0.9953 H       
  41 H41            6.3569     1.9914    -0.6018 H       
  42 H42            7.8291    -2.5113     0.2417 H       
  43 H43           10.0152    -3.5930     0.3276 H       
  44 H44           12.0701    -2.3069    -0.0698 H       
  45 H45           11.9721     0.0807    -0.5629 H       
  46 H46            1.6360     4.2629    -1.0241 H       
  47 H47            1.7691     5.2648     0.4411 H       
  48 H48            2.8946     3.9099     0.1841 H       
  49 H49           -1.2151     3.1353     1.0873 H       
  50 H50           -0.6308     4.8124     0.9685 H       
  51 H51           -0.7639     3.8105    -0.4966 H       
  52 H52            2.2613     2.9621     2.4074 H       
  53 H53            1.1358     4.3170     2.6644 H       
  54 H54            0.5515     2.6398     2.7831 H       
  55 H55           10.2176     3.3000    -2.8092 H       
  56 H56           12.3007     4.6071    -3.1409 H       
  57 H57           11.9495     1.7112     0.7853 H       
  58 H58            2.8094    -1.5458    -2.8200 H       
  59 H59            1.9102    -3.0771    -2.9424 H       
  60 H60            1.0964    -1.5359    -3.3036 H       
@<TRIPOS>BOND
   1    1    2 ar
   2    1    6 ar
   3    1   37 1
   4    2    3 ar
   5    2   31 1
   6    3    4 ar
   7    3   35 1
   8    4    5 ar
   9    4    8 1
  10    5    6 ar
  11    5   38 1
  12    6    7 1
  13    7   21 1
  14    7   22 1
  15    7   23 1
  16    8    9 am
  17    8   39 1
  18    9   10 2
  19    9   24 1
  20   11   12 ar
  21   11   16 ar
  22   11   24 1
  23   12   13 ar
  24   12   17 ar
  25   13   14 ar
  26   13   20 ar
  27   14   15 ar
  28   14   26 1
  29   15   16 ar
  30   15   40 1
  31   16   41 1
  32   17   18 ar
  33   17   42 1
  34   18   19 ar
  35   18   43 1
  36   19   20 ar
  37   19   44 1
  38   20   45 1
  39   21   46 1
  40   21   47 1
  41   21   48 1
  42   22   49 1
  43   22   50 1
  44   22   51 1
  45   23   52 1
  46   23   53 1
  47   23   54 1
  48   24   25 2
  49   26   27 ar
  50   26   30 ar
  51   27   28 ar
  52   27   55 1
  53   28   33 ar
  54   28   56 1
  55   29   30 ar
  56   29   33 ar
  57   30   57 1
  58   31   32 3
  59   33   34 1
  60   35   36 1
  61   36   58 1
  62   36   59 1
  63   36   60 1

#	End of record

