#	Name: ASD01811342
#	Creating user name:	WinNT
#	Creation time:	15. 06. 2019 19:26

#	Modifying user name:	WinNT
#	Modification time:	15. 06. 2019 19:26

#	Program:	/corina/corina34_cracker 3.40 0067  02.08.2006

@<TRIPOS>MOLECULE
ASD01811342
  57   60    0    0    0
SMALL
NO_CHARGES


@<TRIPOS>ATOM
   1 C1             0.1920     0.9093    -0.6155 C.ar    
   2 C2             0.2489    -0.2892     0.0985 C.ar    
   3 C3            -0.9360    -1.1713     0.1627 C.2     
   4 N4            -2.1638    -0.6397     0.3254 N.am    
   5 O5            -0.8028    -2.3759     0.0688 O.2     
   6 C6            -2.3306     0.8010     0.5603 C.3     
   7 C7             1.4271    -0.6519     0.7504 C.ar    
   8 C8             2.5344     0.1804     0.6852 C.ar    
   9 C9             2.4674     1.3714    -0.0282 C.ar    
  10 C10            1.2993     1.7306    -0.6743 C.ar    
  11 N11            3.7180    -0.1782     1.3374 N.pl3   
  12 C12           -3.1652     1.0003     1.8293 C.3     
  13 C13           -4.4801     0.2286     1.6968 C.3     
  14 C14           -4.1839    -1.2649     1.5431 C.3     
  15 C15           -3.3612    -1.4890     0.2652 C.3     
  16 C16           -5.3186     0.4500     2.9293 C.ar    
  17 C17           -6.5711     1.0268     2.8156 C.ar    
  18 C18           -7.3441     1.2319     3.9397 C.ar    
  19 C19           -6.8598     0.8558     5.1942 C.ar    
  20 C20           -5.5949     0.2743     5.3015 C.ar    
  21 C21           -4.8347     0.0702     4.1687 C.ar    
  22 C22            3.7419    -1.2842     2.1696 C.2     
  23 C23           -7.6565     1.0662     6.3653 C.1     
  24 N24           -8.2885     1.2330     7.2944 N.1     
  25 N25            2.7505    -2.1262     2.3680 N.2     
  26 C26            3.6720     2.2743    -0.0971 C.3     
  27 C27            3.1280    -3.0699     3.2311 C.2     
  28 N28            4.3618    -2.8466     3.5964 N.2     
  29 N29            4.7886    -1.6938     2.9176 N.pl3   
  30 C30            2.2681    -4.2115     3.7090 C.3     
  31 C31            2.4479    -5.4107     2.7761 C.3     
  32 H32           -0.7172     1.1914    -1.1254 H       
  33 H33           -1.3532     1.2658     0.6890 H       
  34 H34           -2.8434     1.2527    -0.2890 H       
  35 H35            1.4769    -1.5776     1.3044 H       
  36 H36            1.2531     2.6573    -1.2271 H       
  37 H37            4.5224     0.3479     1.2067 H       
  38 H38           -2.6108     0.6291     2.6913 H       
  39 H39           -3.3777     2.0611     1.9622 H       
  40 H40           -5.0225     0.5833     0.8204 H       
  41 H41           -3.6199    -1.6148     2.4078 H       
  42 H42           -5.1214    -1.8164     1.4722 H       
  43 H43           -3.9602    -1.2241    -0.6061 H       
  44 H44           -3.0627    -2.5354     0.2016 H       
  45 H45           -6.9443     1.3175     1.8448 H       
  46 H46           -8.3214     1.6825     3.8496 H       
  47 H47           -5.2141    -0.0185     6.2689 H       
  48 H48           -3.8562    -0.3796     4.2502 H       
  49 H49            4.2805     2.0031    -0.9598 H       
  50 H50            3.3450     3.3096    -0.1942 H       
  51 H51            4.2618     2.1634     0.8128 H       
  52 H52            5.6602    -1.2724     2.9783 H       
  53 H53            2.5638    -4.4904     4.7204 H       
  54 H54            1.2224    -3.9039     3.7080 H       
  55 H55            1.8260    -6.2364     3.1218 H       
  56 H56            2.1522    -5.1318     1.7647 H       
  57 H57            3.4936    -5.7183     2.7771 H       
@<TRIPOS>BOND
   1    1    2 ar
   2    1   10 ar
   3    1   32 1
   4    2    3 1
   5    2    7 ar
   6    3    4 am
   7    3    5 2
   8    4    6 1
   9    4   15 1
  10    6   12 1
  11    6   33 1
  12    6   34 1
  13    7    8 ar
  14    7   35 1
  15    8    9 ar
  16    8   11 1
  17    9   10 ar
  18    9   26 1
  19   10   36 1
  20   11   22 1
  21   11   37 1
  22   12   13 1
  23   12   38 1
  24   12   39 1
  25   13   14 1
  26   13   16 1
  27   13   40 1
  28   14   15 1
  29   14   41 1
  30   14   42 1
  31   15   43 1
  32   15   44 1
  33   16   17 ar
  34   16   21 ar
  35   17   18 ar
  36   17   45 1
  37   18   19 ar
  38   18   46 1
  39   19   20 ar
  40   19   23 1
  41   20   21 ar
  42   20   47 1
  43   21   48 1
  44   22   25 2
  45   22   29 1
  46   23   24 3
  47   25   27 1
  48   26   49 1
  49   26   50 1
  50   26   51 1
  51   27   28 2
  52   27   30 1
  53   28   29 1
  54   29   52 1
  55   30   31 1
  56   30   53 1
  57   30   54 1
  58   31   55 1
  59   31   56 1
  60   31   57 1

#	End of record

