#	Name: ASD02198399
#	Creating user name:	WinNT
#	Creation time:	15. 06. 2019 20:19

#	Modifying user name:	WinNT
#	Modification time:	15. 06. 2019 20:19

#	Program:	/corina/corina34_cracker 3.40 0067  02.08.2006

@<TRIPOS>MOLECULE
ASD02198399
  39   42    0    0    0
SMALL
NO_CHARGES


@<TRIPOS>ATOM
   1 C1            -0.2192     1.0686    -0.3586 C.2     
   2 C2            -0.1230    -0.2763    -0.3753 C.2     
   3 S3             1.3887     1.7695    -0.2275 S.3     
   4 C4             2.1178     0.1693    -0.2019 C.2     
   5 C5             1.1637    -0.7633    -0.2888 C.2     
   6 S6             3.8452    -0.1558    -0.0801 S.o2    
   7 N7             4.4424    -0.2178    -1.6234 N.am    
   8 C8             4.3261     0.8907    -2.4608 C.ar    
   9 C9             4.0927     0.7144    -3.8430 C.ar    
  10 C10            3.9773     1.8542    -4.6758 C.ar    
  11 C11            4.0959     3.1381    -4.1215 C.ar    
  12 C12            4.3238     3.2814    -2.7713 C.ar    
  13 C13            4.4325     2.1619    -1.9437 C.ar    
  14 N14            3.9809    -0.5081    -4.3696 N.ar    
  15 C15            3.7648    -0.6820    -5.6507 C.ar    
  16 C16            3.6410     0.3952    -6.5258 C.ar    
  17 C17            3.7445     1.6721    -6.0529 C.ar    
  18 O18            4.4269     0.9884     0.5296 O.2     
  19 O19            3.9701    -1.4677     0.4514 O.2     
  20 C20           -1.4798     1.8350    -0.4438 C.2     
  21 N21           -2.6942     1.3480    -0.5475 N.2     
  22 C22           -1.6239     3.2525    -0.4238 C.2     
  23 C23           -2.9574     3.4456    -0.5269 C.2     
  24 O24           -3.5197     2.2301    -0.5958 O.3     
  25 O25            4.4383     4.5257    -2.2373 O.3     
  26 C26            4.3115     5.6308    -3.1343 C.3     
  27 H27           -0.9861    -0.9211    -0.4500 H       
  28 H28            1.3849    -1.8204    -0.2908 H       
  29 H29            4.8731    -1.0253    -1.9447 H       
  30 H30            4.0091     4.0107    -4.7520 H       
  31 H31            4.6110     2.2949    -0.8869 H       
  32 H32            3.6807    -1.6866    -6.0382 H       
  33 H33            3.4630     0.2205    -7.5766 H       
  34 H34            3.6513     2.5189    -6.7167 H       
  35 H35           -0.8477     3.9992    -0.3442 H       
  36 H36           -3.4713     4.3952    -0.5466 H       
  37 H37            5.0851     5.5682    -3.8996 H       
  38 H38            3.3297     5.6042    -3.6071 H       
  39 H39            4.4229     6.5630    -2.5805 H       
@<TRIPOS>BOND
   1    1    2 2
   2    1    3 1
   3    1   20 1
   4    2    5 1
   5    2   27 1
   6    3    4 1
   7    4    5 2
   8    4    6 1
   9    5   28 1
  10    6    7 am
  11    6   18 2
  12    6   19 2
  13    7    8 1
  14    7   29 1
  15    8    9 ar
  16    8   13 ar
  17    9   10 ar
  18    9   14 ar
  19   10   11 ar
  20   10   17 ar
  21   11   12 ar
  22   11   30 1
  23   12   13 ar
  24   12   25 1
  25   13   31 1
  26   14   15 ar
  27   15   16 ar
  28   15   32 1
  29   16   17 ar
  30   16   33 1
  31   17   34 1
  32   20   21 2
  33   20   22 1
  34   21   24 1
  35   22   23 2
  36   22   35 1
  37   23   24 1
  38   23   36 1
  39   25   26 1
  40   26   37 1
  41   26   38 1
  42   26   39 1

#	End of record

