#	Name: ASD00431464
#	Creating user name:	WinNT
#	Creation time:	15. 06. 2019 18:35

#	Modifying user name:	WinNT
#	Modification time:	15. 06. 2019 18:35

#	Program:	/corina/corina34_cracker 3.40 0067  02.08.2006

@<TRIPOS>MOLECULE
ASD00431464
  37   38    0    0    0
SMALL
NO_CHARGES


@<TRIPOS>ATOM
   1 C1            -0.7781    -0.2898     1.3575 C.2     
   2 N2             0.1077     0.0972     0.4184 N.am    
   3 O3            -0.5631    -1.2838     2.0226 O.2     
   4 O4            -1.8987     0.4281     1.5626 O.3     
   5 C5             1.3195    -0.5880     0.2748 C.ar    
   6 C6             1.3705    -1.9597     0.4797 C.ar    
   7 C7             2.5726    -2.6349     0.3366 C.ar    
   8 C8             3.7219    -1.9381    -0.0110 C.ar    
   9 C9             3.6691    -0.5726    -0.2141 C.ar    
  10 C10            2.4714     0.1029    -0.0784 C.ar    
  11 O11            2.6260    -3.9779     0.5369 O.3     
  12 S12            2.0338    -6.4875    -0.3269 S.3     
  13 C13            2.1424    -4.7850    -0.4357 C.2     
  14 N14            1.6941    -4.3758    -1.5851 N.2     
  15 C15            1.2593    -5.2893    -2.4182 C.2     
  16 C16            1.3433    -6.5583    -1.9464 C.2     
  17 C17            0.9422    -7.7445    -2.6410 C.1     
  18 N18            0.6240    -8.6856    -3.1921 N.1     
  19 C19           -2.8075    -0.0477     2.5901 C.3     
  20 C20           -2.0842    -0.0747     3.9381 C.3     
  21 C21           -4.0140     0.8892     2.6774 C.3     
  22 C22           -3.2821    -1.4589     2.2377 C.3     
  23 H23           -0.0946     0.8507    -0.1580 H       
  24 H24            0.4754    -2.4999     0.7504 H       
  25 H25            4.6585    -2.4642    -0.1226 H       
  26 H26            4.5648    -0.0327    -0.4838 H       
  27 H27            2.4318     1.1697    -0.2424 H       
  28 H28            0.8674    -5.0520    -3.3962 H       
  29 H29           -1.7461     0.9307     4.1892 H       
  30 H30           -2.7665    -0.4318     4.7095 H       
  31 H31           -1.2247    -0.7421     3.8759 H       
  32 H32           -4.5293     0.9084     1.7171 H       
  33 H33           -4.6963     0.5320     3.4488 H       
  34 H34           -3.6759     1.8945     2.9285 H       
  35 H35           -2.4226    -2.1263     2.1755 H       
  36 H36           -3.9644    -1.8160     3.0090 H       
  37 H37           -3.7974    -1.4397     1.2774 H       
@<TRIPOS>BOND
   1    1    2 am
   2    1    3 2
   3    1    4 1
   4    2    5 1
   5    2   23 1
   6    4   19 1
   7    5    6 ar
   8    5   10 ar
   9    6    7 ar
  10    6   24 1
  11    7    8 ar
  12    7   11 1
  13    8    9 ar
  14    8   25 1
  15    9   10 ar
  16    9   26 1
  17   10   27 1
  18   11   13 1
  19   12   13 1
  20   12   16 1
  21   13   14 2
  22   14   15 1
  23   15   16 2
  24   15   28 1
  25   16   17 1
  26   17   18 3
  27   19   20 1
  28   19   22 1
  29   19   21 1
  30   20   29 1
  31   20   30 1
  32   20   31 1
  33   21   32 1
  34   21   33 1
  35   21   34 1
  36   22   35 1
  37   22   36 1
  38   22   37 1

#	End of record

