#	Name: ASD03240787
#	Creating user name:	WinNT
#	Creation time:	15. 06. 2019 20:35

#	Modifying user name:	WinNT
#	Modification time:	15. 06. 2019 20:35

#	Program:	/corina/corina34_cracker 3.40 0067  02.08.2006

@<TRIPOS>MOLECULE
ASD03240787
  88   94    0    0    0
SMALL
NO_CHARGES


@<TRIPOS>ATOM
   1 N1            -0.0162     1.3436     0.0094 N.am    
   2 C2            -0.1469     0.0022     0.0234 C.2     
   3 O3             0.8373    -0.7055    -0.0717 O.2     
   4 N4            -1.3684    -0.5547     0.1426 N.am    
   5 N5            -3.0349    -4.3636    -0.5408 N.3     
   6 C6            -2.9708    -3.9138     0.8557 C.3     
   7 C7            -2.7966    -2.3939     0.8959 C.3     
   8 C8            -1.5104    -2.0127     0.1578 C.3     
   9 C9            -1.5825    -2.5348    -1.2799 C.3     
  10 C10           -1.7918    -4.0506    -1.2571 C.3     
  11 C11           -3.3401    -5.7984    -0.6182 C.3     
  12 C12           -3.6396    -6.1719    -2.0471 C.ar    
  13 C13           -2.6145    -6.5800    -2.8818 C.ar    
  14 C14           -2.8823    -6.9237    -4.1910 C.ar    
  15 C15           -4.1899    -6.8590    -4.6724 C.ar    
  16 C16           -5.2192    -6.4468    -3.8259 C.ar    
  17 C17           -4.9393    -6.1107    -2.5172 C.ar    
  18 C18           -3.1412    -7.2900   -10.5729 C.2     
  19 N19           -4.2791    -7.9023   -10.9455 N.2     
  20 C20           -5.2115    -8.2178   -10.0840 C.2     
  21 C21           -5.0120    -7.8967    -8.6724 C.ar    
  22 C22           -3.8159    -7.2537    -8.2878 C.ar    
  23 N23           -2.8888    -6.9594    -9.2690 N.pl3   
  24 C24           -5.9719    -8.2090    -7.7042 C.ar    
  25 C25           -5.7003    -7.8663    -6.3834 C.ar    
  26 C26           -4.4842    -7.2260    -6.0766 C.ar    
  27 N27           -3.5984    -6.9464    -7.0211 N.ar    
  28 N28           -1.6337    -6.3410    -9.2184 N.2     
  29 C29           -1.1370    -6.2928   -10.4312 C.2     
  30 C30           -2.0442    -6.8685   -11.3119 C.2     
  31 C31           -6.6793    -8.1710    -5.3124 C.ar    
  32 C32           -8.0166    -7.8073    -5.4628 C.ar    
  33 C33           -8.9234    -8.0939    -4.4628 C.ar    
  34 C34           -8.5075    -8.7404    -3.3128 C.ar    
  35 C35           -7.1817    -9.1033    -3.1579 C.ar    
  36 C36           -6.2671    -8.8274    -4.1538 C.ar    
  37 C37            0.1978    -5.7040   -10.8087 C.3     
  38 C38            1.2579     1.9224    -0.0005 C.ar    
  39 C39            1.4805     3.1026    -0.6977 C.ar    
  40 C40            2.7391     3.6713    -0.7056 C.ar    
  41 C41            3.7770     3.0666    -0.0206 C.ar    
  42 C42            3.5587     1.8912     0.6742 C.ar    
  43 C43            2.3008     1.3209     0.6915 C.ar    
  44 C44            5.1491     3.6897    -0.0318 C.3     
  45 C45            5.0763     5.0943     0.5704 C.3     
  46 C46            6.1067     2.8293     0.7951 C.3     
  47 C47            5.6574     3.7780    -1.4722 C.3     
  48 H48           -0.8053     1.9077     0.0023 H       
  49 H49           -2.1535     0.0099     0.2184 H       
  50 H50           -3.8931    -4.1874     1.3681 H       
  51 H51           -2.1249    -4.3895     1.3520 H       
  52 H52           -3.6489    -1.9170     0.4120 H       
  53 H53           -2.7334    -2.0622     1.9323 H       
  54 H54           -0.6540    -2.4568     0.6651 H       
  55 H55           -2.4157    -2.0601    -1.7981 H       
  56 H56           -0.6517    -2.3037    -1.7980 H       
  57 H57           -0.9515    -4.5257    -0.7509 H       
  58 H58           -1.8579    -4.4235    -2.2792 H       
  59 H59           -2.4831    -6.3718    -0.2647 H       
  60 H60           -4.2070    -6.0196     0.0045 H       
  61 H61           -1.6025    -6.6293    -2.5080 H       
  62 H62           -2.0812    -7.2418    -4.8417 H       
  63 H63           -6.2335    -6.3943    -4.1930 H       
  64 H64           -5.7359    -5.7953    -1.8597 H       
  65 H65           -6.1159    -8.7091   -10.4113 H       
  66 H66           -6.8952    -8.7002    -7.9735 H       
  67 H67           -1.9178    -6.9713   -12.3795 H       
  68 H68           -8.3422    -7.3019    -6.3599 H       
  69 H69           -9.9597    -7.8126    -4.5782 H       
  70 H70           -9.2207    -8.9624    -2.5327 H       
  71 H71           -6.8626    -9.6076    -2.2577 H       
  72 H72           -5.2331    -9.1152    -4.0338 H       
  73 H73            0.9644    -6.4769   -10.7543 H       
  74 H74            0.1479    -5.3126   -11.8248 H       
  75 H75            0.4465    -4.8964   -10.1201 H       
  76 H76            0.6704     3.5750    -1.2334 H       
  77 H77            2.9129     4.5892    -1.2476 H       
  78 H78            4.3714     1.4211     1.2079 H       
  79 H79            2.1297     0.4056     1.2386 H       
  80 H80            4.7142     5.0314     1.5966 H       
  81 H81            6.0688     5.5450     0.5624 H       
  82 H82            4.3941     5.7073    -0.0187 H       
  83 H83            6.1585     1.8286     0.3661 H       
  84 H84            7.0991     3.2800     0.7870 H       
  85 H85            5.7445     2.7664     1.8213 H       
  86 H86            4.9752     4.3910    -2.0612 H       
  87 H87            6.6499     4.2287    -1.4802 H       
  88 H88            5.7093     2.7774    -1.9012 H       
@<TRIPOS>BOND
   1    1    2 am
   2    1   38 1
   3    1   48 1
   4    2    3 2
   5    2    4 am
   6    4    8 1
   7    4   49 1
   8    5    6 1
   9    5   10 1
  10    5   11 1
  11    6    7 1
  12    6   50 1
  13    6   51 1
  14    7    8 1
  15    7   52 1
  16    7   53 1
  17    8    9 1
  18    8   54 1
  19    9   10 1
  20    9   55 1
  21    9   56 1
  22   10   57 1
  23   10   58 1
  24   11   12 1
  25   11   59 1
  26   11   60 1
  27   12   13 ar
  28   12   17 ar
  29   13   14 ar
  30   13   61 1
  31   14   15 ar
  32   14   62 1
  33   15   16 ar
  34   15   26 1
  35   16   17 ar
  36   16   63 1
  37   17   64 1
  38   18   19 1
  39   18   23 1
  40   18   30 2
  41   19   20 2
  42   20   21 1
  43   20   65 1
  44   21   22 ar
  45   21   24 ar
  46   22   23 1
  47   22   27 ar
  48   23   28 1
  49   24   25 ar
  50   24   66 1
  51   25   26 ar
  52   25   31 1
  53   26   27 ar
  54   28   29 2
  55   29   30 1
  56   29   37 1
  57   30   67 1
  58   31   32 ar
  59   31   36 ar
  60   32   33 ar
  61   32   68 1
  62   33   34 ar
  63   33   69 1
  64   34   35 ar
  65   34   70 1
  66   35   36 ar
  67   35   71 1
  68   36   72 1
  69   37   73 1
  70   37   74 1
  71   37   75 1
  72   38   39 ar
  73   38   43 ar
  74   39   40 ar
  75   39   76 1
  76   40   41 ar
  77   40   77 1
  78   41   42 ar
  79   41   44 1
  80   42   43 ar
  81   42   78 1
  82   43   79 1
  83   44   45 1
  84   44   47 1
  85   44   46 1
  86   45   80 1
  87   45   81 1
  88   45   82 1
  89   46   83 1
  90   46   84 1
  91   46   85 1
  92   47   86 1
  93   47   87 1
  94   47   88 1

#	End of record

