#	Name: ASD01810603
#	Creating user name:	WinNT
#	Creation time:	15. 06. 2019 19:24

#	Modifying user name:	WinNT
#	Modification time:	15. 06. 2019 19:24

#	Program:	/corina/corina34_cracker 3.40 0067  02.08.2006

@<TRIPOS>MOLECULE
ASD01810603
  55   60    0    0    0
SMALL
NO_CHARGES


@<TRIPOS>ATOM
   1 N1            -0.0153     1.2784     0.0091 N.pl3   
   2 N2             0.0021    -0.0041     0.0020 N.2     
   3 C3             1.0992    -0.7158    -0.0123 C.2     
   4 C4             2.4157    -0.0320    -0.0211 C.2     
   5 C5             2.3886     1.4423    -0.0134 C.ar    
   6 C6             3.5452     2.2104    -0.0213 C.ar    
   7 C7             3.4472     3.5872    -0.0144 C.ar    
   8 C8             2.2029     4.1988     0.0009 C.ar    
   9 C9             1.0468     3.4467     0.0089 C.ar    
  10 C10            1.1229     2.0588     0.0024 C.ar    
  11 N11            2.7672    -2.2287    -0.0363 N.am    
  12 N12            3.3335    -0.9515    -0.0348 N.2     
  13 C13            1.4194    -2.1450    -0.0230 C.2     
  14 O14            0.6278    -3.0730    -0.0198 O.2     
  15 C15           -1.3160     1.9525     0.0188 C.3     
  16 C16           -2.5271     1.2423    -2.0580 C.ar    
  17 C17           -1.7686     2.1913    -1.3987 C.ar    
  18 C18           -1.4280     3.3665    -2.0542 C.ar    
  19 C19           -1.8635     3.5476    -3.3549 C.ar    
  20 C20           -2.6254     2.5489    -3.9593 C.ar    
  21 N21           -2.9295     1.4393    -3.2974 N.ar    
  22 S22           -4.1805     2.4204    -7.6148 S.3     
  23 C23           -3.3030     3.8460    -7.2702 C.2     
  24 N24           -2.8342     3.8088    -6.0717 N.2     
  25 C25           -3.1000     2.7277    -5.3518 C.2     
  26 C26           -3.8410     1.8046    -5.9994 C.2     
  27 C27            3.5274    -3.4809    -0.0498 C.3     
  28 C28            4.3976    -3.5357    -1.3071 C.3     
  29 C29            5.1915    -4.8435    -1.3212 C.3     
  30 C30            6.0837    -4.9119    -0.0802 C.3     
  31 C31            5.2136    -4.8571     1.1771 C.3     
  32 C32            4.4196    -3.5493     1.1913 C.3     
  33 O33            3.5643    -3.4718    -2.4662 O.3     
  34 H34            4.5144     1.7341    -0.0325 H       
  35 H35            4.3430     4.1903    -0.0204 H       
  36 H36            2.1383     5.2769     0.0069 H       
  37 H37            0.0838     3.9354     0.0204 H       
  38 H38           -2.0457     1.3266     0.5326 H       
  39 H39           -1.2268     2.9070     0.5374 H       
  40 H40           -2.7899     0.3250    -1.5521 H       
  41 H41           -0.8365     4.1228    -1.5597 H       
  42 H42           -1.6169     4.4503    -3.8943 H       
  43 H43           -3.1616     4.6638    -7.9612 H       
  44 H44           -4.1680     0.8566    -5.5987 H       
  45 H45            2.8376    -4.3248    -0.0483 H       
  46 H46            5.0874    -2.6918    -1.3086 H       
  47 H47            4.5017    -5.6874    -1.3197 H       
  48 H48            5.8114    -4.8825    -2.2169 H       
  49 H49            6.6494    -5.8436    -0.0902 H       
  50 H50            6.7736    -4.0680    -0.0817 H       
  51 H51            4.5237    -5.7010     1.1786 H       
  52 H52            5.8492    -4.9058     2.0613 H       
  53 H53            5.1095    -2.7054     1.1898 H       
  54 H54            3.7997    -3.5103     2.0870 H       
  55 H55            4.0499    -3.5018    -3.3019 H       
@<TRIPOS>BOND
   1    1    2 1
   2    1   10 1
   3    1   15 1
   4    2    3 2
   5    3    4 1
   6    3   13 1
   7    4    5 1
   8    4   12 2
   9    5    6 ar
  10    5   10 ar
  11    6    7 ar
  12    6   34 1
  13    7    8 ar
  14    7   35 1
  15    8    9 ar
  16    8   36 1
  17    9   10 ar
  18    9   37 1
  19   11   12 1
  20   11   13 am
  21   11   27 1
  22   13   14 2
  23   15   17 1
  24   15   38 1
  25   15   39 1
  26   16   17 ar
  27   16   21 ar
  28   16   40 1
  29   17   18 ar
  30   18   19 ar
  31   18   41 1
  32   19   20 ar
  33   19   42 1
  34   20   21 ar
  35   20   25 1
  36   22   23 1
  37   22   26 1
  38   23   24 2
  39   23   43 1
  40   24   25 1
  41   25   26 2
  42   26   44 1
  43   27   28 1
  44   27   32 1
  45   27   45 1
  46   28   29 1
  47   28   33 1
  48   28   46 1
  49   29   30 1
  50   29   47 1
  51   29   48 1
  52   30   31 1
  53   30   49 1
  54   30   50 1
  55   31   32 1
  56   31   51 1
  57   31   52 1
  58   32   53 1
  59   32   54 1
  60   33   55 1

#	End of record

