#	Name: ASD01040008
#	Creating user name:	WinNT
#	Creation time:	15. 06. 2019 18:58

#	Modifying user name:	WinNT
#	Modification time:	15. 06. 2019 18:58

#	Program:	/corina/corina34_cracker 3.40 0067  02.08.2006

@<TRIPOS>MOLECULE
ASD01040008
  53   55    0    0    0
SMALL
NO_CHARGES


@<TRIPOS>ATOM
   1 C1            -0.0127     1.0858     0.0080 C.3     
   2 C2            -0.7416     1.5850    -1.2129 C.2     
   3 C3            -0.0582     1.8266    -2.3590 C.2     
   4 C4            -0.7737     2.3167    -3.5575 C.ar    
   5 C5            -1.7274     1.5106    -4.1815 C.ar    
   6 C6            -2.3960     1.9730    -5.2947 C.ar    
   7 C7            -2.1221     3.2390    -5.7955 C.ar    
   8 O8            -2.7832     3.6913    -6.8928 O.3     
   9 C9            -1.1743     4.0442    -5.1771 C.ar    
  10 C10           -0.5012     3.5887    -4.0639 C.ar    
  11 C11            1.4028     1.6001    -2.4108 C.ar    
  12 C12            1.9284     0.6104    -3.2431 C.ar    
  13 C13            3.2903     0.4027    -3.2890 C.ar    
  14 C14            4.1393     1.1766    -2.5085 C.ar    
  15 O15            5.4810     0.9689    -2.5564 O.3     
  16 C16            3.6202     2.1626    -1.6795 C.ar    
  17 C17            2.2598     2.3795    -1.6318 C.ar    
  18 C18           -2.1938     1.8102    -1.1614 C.ar    
  19 C19           -2.7109     3.1014    -1.3106 C.ar    
  20 C20           -4.0738     3.3041    -1.2611 C.ar    
  21 C21           -4.9296     2.2344    -1.0638 C.ar    
  22 C22           -6.4179     2.4652    -1.0105 C.3     
  23 C23           -6.7450     3.4203     0.1391 C.3     
  24 C24           -6.8866     3.0780    -2.3317 C.3     
  25 C25           -7.1330     1.1316    -0.7848 C.3     
  26 C26           -4.4260     0.9537    -0.9158 C.ar    
  27 C27           -3.0659     0.7334    -0.9686 C.ar    
  28 H28            0.0021    -0.0041     0.0020 H       
  29 H29            1.0099     1.4631     0.0003 H       
  30 H30           -0.5229     1.4373     0.9048 H       
  31 H31           -1.9407     0.5258    -3.7929 H       
  32 H32           -3.1337     1.3498    -5.7782 H       
  33 H33           -3.6027     4.1634    -6.6914 H       
  34 H34           -0.9642     5.0283    -5.5693 H       
  35 H35            0.2328     4.2169    -3.5812 H       
  36 H36            1.2688     0.0079    -3.8500 H       
  37 H37            3.6977    -0.3632    -3.9324 H       
  38 H38            5.9370     1.4964    -3.2265 H       
  39 H39            4.2838     2.7649    -1.0769 H       
  40 H40            1.8569     3.1467    -0.9872 H       
  41 H41           -2.0444     3.9373    -1.4639 H       
  42 H42           -4.4747     4.3004    -1.3761 H       
  43 H43           -6.2355     4.3703    -0.0217 H       
  44 H44           -7.8215     3.5872     0.1777 H       
  45 H45           -6.4111     2.9837     1.0804 H       
  46 H46           -6.6536     2.3976    -3.1508 H       
  47 H47           -7.9630     3.2449    -2.2932 H       
  48 H48           -6.3771     4.0281    -2.4925 H       
  49 H49           -6.7991     0.6950     0.1564 H       
  50 H50           -8.2095     1.2985    -0.7463 H       
  51 H51           -6.9000     0.4511    -1.6039 H       
  52 H52           -5.1003     0.1241    -0.7626 H       
  53 H53           -2.6747    -0.2671    -0.8574 H       
@<TRIPOS>BOND
   1    1   28 1
   2    1   29 1
   3    1   30 1
   4    1    2 1
   5    2   18 1
   6    2    3 2
   7    3    4 1
   8    3   11 1
   9    4   10 ar
  10    4    5 ar
  11    5   31 1
  12    5    6 ar
  13    6    7 ar
  14    6   32 1
  15    7    9 ar
  16    7    8 1
  17    8   33 1
  18    9   10 ar
  19    9   34 1
  20   10   35 1
  21   11   12 ar
  22   11   17 ar
  23   12   36 1
  24   12   13 ar
  25   13   37 1
  26   13   14 ar
  27   14   15 1
  28   14   16 ar
  29   15   38 1
  30   16   17 ar
  31   16   39 1
  32   17   40 1
  33   18   27 ar
  34   18   19 ar
  35   19   20 ar
  36   19   41 1
  37   20   21 ar
  38   20   42 1
  39   21   22 1
  40   21   26 ar
  41   22   24 1
  42   22   23 1
  43   22   25 1
  44   23   43 1
  45   23   44 1
  46   23   45 1
  47   24   46 1
  48   24   47 1
  49   24   48 1
  50   25   49 1
  51   25   50 1
  52   25   51 1
  53   26   52 1
  54   26   27 ar
  55   27   53 1

#	End of record

