#	Name: ASD01884361
#	Creating user name:	WinNT
#	Creation time:	15. 06. 2019 19:48

#	Modifying user name:	WinNT
#	Modification time:	15. 06. 2019 19:48

#	Program:	/corina/corina34_cracker 3.40 0067  02.08.2006

@<TRIPOS>MOLECULE
ASD01884361
  24   25    0    0    0
SMALL
NO_CHARGES


@<TRIPOS>ATOM
   1 C1            -0.0169     1.3978     0.0097 C.2     
   2 C2             0.0021    -0.0041     0.0020 C.2     
   3 C3            -1.2194    -0.6970     0.0099 C.2     
   4 C4            -2.3856    -0.0124     0.0247 C.2     
   5 N5            -2.4070     1.3450     0.0322 N.am    
   6 C6            -1.2675     2.0615     0.0312 C.2     
   7 O7            -1.3121     3.2800     0.0384 O.2     
   8 C8            -3.6949     2.0432     0.0482 C.3     
   9 C9            -4.1295     2.2785     1.4961 C.3     
  10 O10            1.1751    -0.6767    -0.0132 O.3     
  11 C11            1.2052     2.1442     0.0021 C.1     
  12 N12            2.1747     2.7362    -0.0040 N.1     
  13 C13           -5.3985     3.1010     1.7280 C.3     
  14 C14           -5.4113     1.5903     1.9697 C.3     
  15 H15           -1.2275    -1.7769     0.0038 H       
  16 H16           -3.3185    -0.5564     0.0303 H       
  17 H17           -3.5949     3.0015    -0.4615 H       
  18 H18           -4.4433     1.4367    -0.4618 H       
  19 H19           -3.3201     2.3875     2.2181 H       
  20 H20            1.0769    -1.6387    -0.0174 H       
  21 H21           -5.4243     3.7509     2.6027 H       
  22 H22           -5.9238     3.4745     0.8490 H       
  23 H23           -5.9449     0.9699     1.2497 H       
  24 H24           -5.4454     1.2463     3.0034 H       
@<TRIPOS>BOND
   1    1    2 2
   2    1   11 1
   3    1    6 1
   4    2    3 1
   5    2   10 1
   6    3    4 2
   7    3   15 1
   8    4    5 1
   9    4   16 1
  10    5    6 am
  11    5    8 1
  12    6    7 2
  13    8    9 1
  14    8   17 1
  15    8   18 1
  16    9   13 1
  17    9   14 1
  18    9   19 1
  19   10   20 1
  20   11   12 3
  21   13   14 1
  22   13   21 1
  23   13   22 1
  24   14   23 1
  25   14   24 1

#	End of record

