#	Name: ASD01940724
#	Creating user name:	WinNT
#	Creation time:	15. 06. 2019 20:13

#	Modifying user name:	WinNT
#	Modification time:	15. 06. 2019 20:13

#	Program:	/corina/corina34_cracker 3.40 0067  02.08.2006

@<TRIPOS>MOLECULE
ASD01940724
  45   48    0    0    0
SMALL
NO_CHARGES


@<TRIPOS>ATOM
   1 C1             0.3566     0.9687     1.2031 C.ar    
   2 C2            -0.1456     0.2351     0.1441 C.ar    
   3 C3             0.6234     0.0327    -0.9892 C.ar    
   4 C4             1.9006     0.5646    -1.0673 C.ar    
   5 C5             2.4102     1.3022    -0.0068 C.ar    
   6 C6             1.6338     1.5045     1.1331 C.ar    
   7 N7             2.1428     2.2483     2.2061 N.am    
   8 S8             1.7604     1.8266     3.7612 S.o2    
   9 C9             2.3866     0.1333     3.9379 C.3     
  10 O10            2.5158     2.7238     4.5634 O.2     
  11 O11            0.3397     1.8383     3.7882 O.2     
  12 F12            0.1279    -0.6853    -2.0209 F       
  13 F13            2.6495     0.3655    -2.1739 F       
  14 N14            3.7017     1.8413    -0.0822 N.pl3   
  15 C15            4.8079     1.0501     0.2330 C.ar    
  16 C16            6.0774     1.6182     0.2820 C.ar    
  17 C17            4.6392    -0.3028     0.5032 C.ar    
  18 C18            5.7304    -1.0861     0.8148 C.ar    
  19 C19            7.0036    -0.5208     0.8590 C.ar    
  20 C20            7.1710     0.8379     0.5934 C.ar    
  21 Cl21           6.2845     3.3096    -0.0494 Cl      
  22 C22            8.1784    -1.3621     1.1946 C.ar    
  23 C23            9.4597    -0.8061     1.2418 C.ar    
  24 C24           10.5232    -1.6336     1.5599 C.ar    
  25 C25           10.2858    -2.9711     1.8182 C.ar    
  26 N26            9.0647    -3.4677     1.7659 N.ar    
  27 C27            8.0216    -2.7186     1.4735 C.ar    
  28 C28            2.0838    -0.5989     5.2468 C.3     
  29 C29            1.3598    -1.0008     3.9602 C.3     
  30 H30           -0.2480     1.1282     2.0837 H       
  31 H31           -1.1404    -0.1815     0.2012 H       
  32 H32            2.7190     3.0103     2.0379 H       
  33 H33            3.3461    -0.0654     3.4605 H       
  34 H34            3.8270     2.7641    -0.3535 H       
  35 H35            3.6526    -0.7408     0.4693 H       
  36 H36            5.5984    -2.1372     1.0249 H       
  37 H37            8.1568     1.2777     0.6271 H       
  38 H38            9.6164     0.2423     1.0352 H       
  39 H39           11.5274    -1.2388     1.6054 H       
  40 H40           11.1131    -3.6196     2.0662 H       
  41 H41            7.0371    -3.1613     1.4407 H       
  42 H42            2.8439    -1.2795     5.6302 H       
  43 H43            1.5083    -0.0630     6.0017 H       
  44 H44            0.3081    -0.7295     3.8687 H       
  45 H45            1.6437    -1.9459     3.4973 H       
@<TRIPOS>BOND
   1    1    2 ar
   2    1    6 ar
   3    1   30 1
   4    2    3 ar
   5    2   31 1
   6    3    4 ar
   7    3   12 1
   8    4    5 ar
   9    4   13 1
  10    5    6 ar
  11    5   14 1
  12    6    7 1
  13    7    8 am
  14    7   32 1
  15    8    9 1
  16    8   10 2
  17    8   11 2
  18    9   28 1
  19    9   29 1
  20    9   33 1
  21   14   15 1
  22   14   34 1
  23   15   16 ar
  24   15   17 ar
  25   16   21 1
  26   16   20 ar
  27   17   18 ar
  28   17   35 1
  29   18   19 ar
  30   18   36 1
  31   19   20 ar
  32   19   22 1
  33   20   37 1
  34   22   23 ar
  35   22   27 ar
  36   23   24 ar
  37   23   38 1
  38   24   25 ar
  39   24   39 1
  40   25   26 ar
  41   25   40 1
  42   26   27 ar
  43   27   41 1
  44   28   29 1
  45   28   42 1
  46   28   43 1
  47   29   44 1
  48   29   45 1

#	End of record

