#	Name: ASD06170067
#	Creating user name:	WinNT
#	Creation time:	15. 06. 2019 21:05

#	Modifying user name:	WinNT
#	Modification time:	15. 06. 2019 21:05

#	Program:	/corina/corina34_cracker 3.40 0067  02.08.2006

@<TRIPOS>MOLECULE
ASD06170067
  70   75    0    0    0
SMALL
NO_CHARGES


@<TRIPOS>ATOM
   1 N1            -0.0770     1.4604    -0.2962 N.pl3   
   2 N2            -0.0397     0.0966     0.0089 N.am    
   3 C3             1.2382    -0.2511     0.2668 C.2     
   4 C4             2.0432     0.9709     0.1123 C.2     
   5 C5             1.1644     1.9786    -0.2340 C.2     
   6 C6             3.4948     1.0949     0.2921 C.2     
   7 O7             4.0378     2.1723     0.1326 O.2     
   8 N8             4.2262     0.0157     0.6337 N.am    
   9 C9            -1.1424    -0.7633     0.0419 C.ar    
  10 C10           -2.0895    -0.7197    -0.9730 C.ar    
  11 C11           -3.1769    -1.5704    -0.9377 C.ar    
  12 C12           -3.3235    -2.4646     0.1069 C.ar    
  13 C13           -2.3822    -2.5105     1.1189 C.ar    
  14 C14           -1.2895    -1.6665     1.0866 C.ar    
  15 O15            1.6450    -1.3577     0.5682 O.2     
  16 C16           -1.2864     2.2128    -0.6391 C.3     
  17 O17           -1.0251     3.8074     1.2033 O.3     
  18 C18           -1.8765     4.6636     1.9830 C.3     
  19 N19           -3.2425     4.5847     1.4291 N.3     
  20 C20           -3.1726     3.6195     0.3042 C.3     
  21 C21           -1.8969     2.8042     0.6331 C.3     
  22 C22            1.5327     3.4157    -0.4985 C.3     
  23 C23            5.6244     0.0913     0.6413 C.ar    
  24 C24            6.2529     1.3084     0.8706 C.ar    
  25 C25            7.6331     1.3819     0.8785 C.ar    
  26 C26            8.3907     0.2380     0.6569 C.ar    
  27 C27            7.7621    -0.9764     0.4282 C.ar    
  28 C28            6.3827    -1.0515     0.4255 C.ar    
  29 O29            9.7487     0.3100     0.6641 O.3     
  30 N30           11.6221     0.7736     4.3089 N.ar    
  31 C31           10.3119     0.7923     4.2330 C.ar    
  32 C32            9.6463     0.6396     3.0236 C.ar    
  33 C33           10.3716     0.4620     1.8584 C.ar    
  34 C34           11.7819     0.4434     1.9519 C.ar    
  35 C35           12.5840     0.2684     0.8148 C.ar    
  36 C36           13.9393     0.2556     0.9373 C.ar    
  37 C37           14.5459     0.4153     2.1866 C.ar    
  38 C38           13.7861     0.5885     3.3213 C.ar    
  39 C39           12.3857     0.6061     3.2227 C.ar    
  40 O40           15.9008     0.3987     2.2820 O.3     
  41 C41           16.6343     0.2148     1.0695 C.3     
  42 F42            8.2456     2.5654     1.1010 F       
  43 H43            3.7840    -0.8135     0.8742 H       
  44 H44           -1.9759    -0.0210    -1.7887 H       
  45 H45           -3.9137    -1.5370    -1.7266 H       
  46 H46           -4.1751    -3.1283     0.1325 H       
  47 H47           -2.4996    -3.2101     1.9334 H       
  48 H48           -0.5527    -1.7057     1.8752 H       
  49 H49           -1.0303     3.0181    -1.3275 H       
  50 H50           -2.0073     1.5460    -1.1120 H       
  51 H51           -1.8807     4.3315     3.0212 H       
  52 H52           -1.5157     5.6906     1.9273 H       
  53 H53           -3.8996     4.2761     2.1300 H       
  54 H54           -4.0512     2.9745     0.2932 H       
  55 H55           -3.0631     4.1414    -0.6465 H       
  56 H56           -2.1113     2.0197     1.3588 H       
  57 H57            1.4802     3.9814     0.4318 H       
  58 H58            2.5465     3.4637    -0.8961 H       
  59 H59            0.8380     3.8416    -1.2224 H       
  60 H60            5.6635     2.1970     1.0423 H       
  61 H61            8.3513    -1.8651     0.2561 H       
  62 H62            5.8939    -1.9987     0.2512 H       
  63 H63            9.7355     0.9303     5.1359 H       
  64 H64            8.5669     0.6587     2.9927 H       
  65 H65           12.1271     0.1437    -0.1558 H       
  66 H66           14.5533     0.1202     0.0593 H       
  67 H67           14.2644     0.7103     4.2819 H       
  68 H68           16.3606    -0.7400     0.6205 H       
  69 H69           16.3993     1.0227     0.3765 H       
  70 H70           17.7024     0.2214     1.2864 H       
@<TRIPOS>BOND
   1    1    2 1
   2    1    5 1
   3    1   16 1
   4    2    3 am
   5    2    9 1
   6    3    4 1
   7    3   15 2
   8    4    5 2
   9    4    6 1
  10    5   22 1
  11    6    7 2
  12    6    8 am
  13    8   23 1
  14    8   43 1
  15    9   10 ar
  16    9   14 ar
  17   10   11 ar
  18   10   44 1
  19   11   12 ar
  20   11   45 1
  21   12   13 ar
  22   12   46 1
  23   13   14 ar
  24   13   47 1
  25   14   48 1
  26   16   21 1
  27   16   49 1
  28   16   50 1
  29   17   18 1
  30   17   21 1
  31   18   19 1
  32   18   51 1
  33   18   52 1
  34   19   20 1
  35   19   53 1
  36   20   21 1
  37   20   54 1
  38   20   55 1
  39   21   56 1
  40   22   57 1
  41   22   58 1
  42   22   59 1
  43   23   24 ar
  44   23   28 ar
  45   24   25 ar
  46   24   60 1
  47   25   26 ar
  48   25   42 1
  49   26   27 ar
  50   26   29 1
  51   27   28 ar
  52   27   61 1
  53   28   62 1
  54   29   33 1
  55   30   31 ar
  56   30   39 ar
  57   31   32 ar
  58   31   63 1
  59   32   33 ar
  60   32   64 1
  61   33   34 ar
  62   34   35 ar
  63   34   39 ar
  64   35   36 ar
  65   35   65 1
  66   36   37 ar
  67   36   66 1
  68   37   38 ar
  69   37   40 1
  70   38   39 ar
  71   38   67 1
  72   40   41 1
  73   41   68 1
  74   41   69 1
  75   41   70 1

#	End of record

