#	Name: ASD01914130
#	Creating user name:	WinNT
#	Creation time:	15. 06. 2019 20:02

#	Modifying user name:	WinNT
#	Modification time:	15. 06. 2019 20:02

#	Program:	/corina/corina34_cracker 3.40 0067  02.08.2006

@<TRIPOS>MOLECULE
ASD01914130
  44   47    0    0    0
SMALL
NO_CHARGES


@<TRIPOS>ATOM
   1 C1            -0.9252     1.6403    -0.2019 C.2     
   2 C2            -0.7506     0.1821    -0.1941 C.2     
   3 N3            -1.7089    -0.7302    -0.1225 N.2     
   4 C4            -1.0795    -1.9142    -0.1467 C.2     
   5 N5             0.1976    -1.6815    -0.2294 N.2     
   6 O6             0.4120    -0.4882    -0.2640 O.3     
   7 C7            -1.7341    -3.2704    -0.0884 C.3     
   8 C8            -1.3857    -4.0604    -1.3519 C.3     
   9 C9            -2.0767    -5.4253    -1.3089 C.3     
  10 C10           -1.5728    -6.2102    -0.0936 C.3     
  11 N11           -1.7725    -5.3945     1.1120 N.am    
  12 C12           -1.2264    -4.0308     1.1408 C.3     
  13 C13           -0.0839    -6.5185    -0.2635 C.3     
  14 C14           -2.4438    -5.8878     2.1715 C.2     
  15 C15           -2.5251    -5.1073     3.4231 C.ar    
  16 C16           -1.4041    -4.4204     3.9077 C.ar    
  17 C17           -1.5313    -3.7046     5.0829 C.ar    
  18 C18           -2.7533    -3.6890     5.7391 C.ar    
  19 N19           -3.7934    -4.3471     5.2574 N.ar    
  20 C20           -3.7211    -5.0376     4.1386 C.ar    
  21 O21           -2.9824    -6.9752     2.0971 O.2     
  22 C22            0.0797     2.5796    -0.2767 C.2     
  23 C23           -0.5313     3.8400    -0.2546 C.2     
  24 C24           -1.8690     3.6507    -0.1686 C.2     
  25 N25           -2.1216     2.3152    -0.1418 N.pl3   
  26 Cl26           0.2821     5.3721    -0.3246 Cl      
  27 F27           -2.8821    -2.9909     6.8885 F       
  28 H28           -2.8154    -3.1498    -0.0212 H       
  29 H29           -1.7241    -3.5096    -2.2295 H       
  30 H30           -0.3062    -4.2014    -1.4059 H       
  31 H31           -3.1547    -5.2850    -1.2300 H       
  32 H32           -1.8470    -5.9782    -2.2198 H       
  33 H33           -2.1327    -7.1409    -0.0020 H       
  34 H34           -0.1374    -4.0727     1.1204 H       
  35 H35           -1.5577    -3.5235     2.0469 H       
  36 H36            0.4730    -5.5854    -0.3484 H       
  37 H37            0.2726    -7.0769     0.6021 H       
  38 H38            0.0635    -7.1130    -1.1652 H       
  39 H39           -0.4643    -4.4500     3.3764 H       
  40 H40           -0.6882    -3.1633     5.4862 H       
  41 H41           -4.5928    -5.5625     3.7765 H       
  42 H42            1.1395     2.3816    -0.3398 H       
  43 H43           -2.6135     4.4322    -0.1321 H       
  44 H44           -2.9994     1.9065    -0.0833 H       
@<TRIPOS>BOND
   1    1    2 1
   2    1   22 2
   3    1   25 1
   4    2    3 2
   5    2    6 1
   6    3    4 1
   7    4    5 2
   8    4    7 1
   9    5    6 1
  10    7    8 1
  11    7   12 1
  12    7   28 1
  13    8    9 1
  14    8   29 1
  15    8   30 1
  16    9   10 1
  17    9   31 1
  18    9   32 1
  19   10   11 1
  20   10   13 1
  21   10   33 1
  22   11   12 1
  23   11   14 am
  24   12   34 1
  25   12   35 1
  26   13   36 1
  27   13   37 1
  28   13   38 1
  29   14   15 1
  30   14   21 2
  31   15   16 ar
  32   15   20 ar
  33   16   17 ar
  34   16   39 1
  35   17   18 ar
  36   17   40 1
  37   18   19 ar
  38   18   27 1
  39   19   20 ar
  40   20   41 1
  41   22   23 1
  42   22   42 1
  43   23   24 2
  44   23   26 1
  45   24   25 1
  46   24   43 1
  47   25   44 1

#	End of record

