#	Name: ASD01913939
#	Creating user name:	WinNT
#	Creation time:	15. 06. 2019 20:02

#	Modifying user name:	WinNT
#	Modification time:	15. 06. 2019 20:02

#	Program:	/corina/corina34_cracker 3.40 0067  02.08.2006

@<TRIPOS>MOLECULE
ASD01913939
  44   46    0    0    0
SMALL
NO_CHARGES


@<TRIPOS>ATOM
   1 C1             0.0472     1.4290    -0.0455 C.ar    
   2 C2             0.0650    -0.0029    -0.0538 C.1     
   3 C3             0.0796    -1.1768    -0.0606 C.1     
   4 C4             0.0974    -2.6087    -0.0689 C.ar    
   5 N5             0.1497    -3.2693    -1.2258 N.ar    
   6 C6             0.1296    -5.2904    -0.0285 C.ar    
   7 N7             0.0829    -4.6356     1.1253 N.ar    
   8 C8             0.0659    -3.3164     1.1362 C.ar    
   9 C9             0.1665    -4.5872    -1.2307 C.ar    
  10 C10            0.0786     2.1386    -1.2491 C.ar    
  11 C11            0.0128     4.1985    -0.0295 C.ar    
  12 N12            0.1479    -6.6833    -0.0371 N.am    
  13 C13           -0.0076     2.1235     1.1660 C.ar    
  14 C14            0.0613     3.5175    -1.2332 C.ar    
  15 C15           -0.0244     3.5026     1.1660 C.ar    
  16 C16           -1.0126    -7.3558    -0.0242 C.2     
  17 N17           -1.0715    -8.6958    -0.0206 N.am    
  18 C18            0.1438    -9.5114    -0.0430 C.3     
  19 C19            1.2799    -8.7395     0.6364 C.3     
  20 C20            1.4332    -7.3834    -0.0662 C.3     
  21 C21           -0.1053   -10.8210     0.7080 C.3     
  22 C22            0.5280    -9.8167    -1.4922 C.3     
  23 O23           -2.0524    -6.7257    -0.0151 O.2     
  24 C24           -2.3788    -9.3566     0.0070 C.3     
  25 H25            0.0280    -2.7839     2.0751 H       
  26 H26            0.2084    -5.1226    -2.1677 H       
  27 H27            0.1168     1.6084    -2.1892 H       
  28 H28           -0.0006     5.2784    -0.0233 H       
  29 H29           -0.0370     1.5817     2.0997 H       
  30 H30            0.0905     4.0673    -2.1623 H       
  31 H31           -0.0664     4.0407     2.1015 H       
  32 H32            1.0399    -8.5854     1.6883 H       
  33 H33            2.2088    -9.3031     0.5489 H       
  34 H34            1.7454    -7.5411    -1.0985 H       
  35 H35            2.1815    -6.7859     0.4545 H       
  36 H36           -0.9174   -11.3666     0.2275 H       
  37 H37            0.8002   -11.4276     0.6907 H       
  38 H38           -0.3760   -10.6017     1.7408 H       
  39 H39            0.7078    -8.8828    -2.0248 H       
  40 H40            1.4330   -10.4240    -1.5079 H       
  41 H41           -0.2830   -10.3607    -1.9763 H       
  42 H42           -3.1664    -8.6033     0.0214 H       
  43 H43           -2.4892    -9.9807    -0.8798 H       
  44 H44           -2.4534    -9.9774     0.8998 H       
@<TRIPOS>BOND
   1    1    2 1
   2    1   13 ar
   3    1   10 ar
   4    2    3 3
   5    3    4 1
   6    4    5 ar
   7    4    8 ar
   8    5    9 ar
   9    6    7 ar
  10    6   12 1
  11    6    9 ar
  12    7    8 ar
  13    8   25 1
  14    9   26 1
  15   10   14 ar
  16   10   27 1
  17   11   14 ar
  18   11   15 ar
  19   11   28 1
  20   12   16 am
  21   12   20 1
  22   13   15 ar
  23   13   29 1
  24   14   30 1
  25   15   31 1
  26   16   17 am
  27   16   23 2
  28   17   18 1
  29   17   24 1
  30   18   19 1
  31   18   21 1
  32   18   22 1
  33   19   20 1
  34   19   32 1
  35   19   33 1
  36   20   34 1
  37   20   35 1
  38   21   36 1
  39   21   37 1
  40   21   38 1
  41   22   39 1
  42   22   40 1
  43   22   41 1
  44   24   42 1
  45   24   43 1
  46   24   44 1

#	End of record

