#	Name: ASD01910866
#	Creating user name:	WinNT
#	Creation time:	15. 06. 2019 19:56

#	Modifying user name:	WinNT
#	Modification time:	15. 06. 2019 19:56

#	Program:	/corina/corina34_cracker 3.40 0067  02.08.2006

@<TRIPOS>MOLECULE
ASD01910866
  48   51    0    0    0
SMALL
NO_CHARGES


@<TRIPOS>ATOM
   1 C1            -0.1036     1.7584     0.3949 C.ar    
   2 C2            -0.0084     0.3725     0.4098 C.ar    
   3 C3            -1.1746    -0.3698     0.3566 C.ar    
   4 C4            -2.3958     0.2925     0.2903 C.ar    
   5 N5            -2.4456     1.6155     0.2777 N.ar    
   6 C6            -1.3507     2.3499     0.3331 C.ar    
   7 N7            -3.5756    -0.4419     0.2364 N.3     
   8 C8            -4.7450     0.4448     0.1710 C.3     
   9 C9            -6.0049    -0.3938    -0.0690 C.3     
  10 N10           -6.0740    -1.4392     0.9633 N.am    
  11 C11           -4.8877    -2.2807     1.1819 C.3     
  12 C12           -3.6718    -1.3679     1.3727 C.3     
  13 C13           -7.1948    -1.6216     1.6893 C.2     
  14 C14           -7.2877    -2.7556     2.6336 C.ar    
  15 C15           -7.9052    -2.5841     3.8745 C.ar    
  16 C16           -7.9929    -3.6417     4.7586 C.ar    
  17 C17           -7.4717    -4.8749     4.4235 C.ar    
  18 C18           -6.8505    -5.0614     3.1845 C.ar    
  19 C19           -6.7644    -3.9988     2.2850 C.ar    
  20 C20           -6.3092    -6.3410     2.8380 C.1     
  21 O21           -8.1292    -0.8537     1.5678 O.2     
  22 C22           -5.8654    -7.3902     2.5539 C.1     
  23 C23           -5.3241    -8.6698     2.2074 C.ar    
  24 N24           -4.7350    -8.8398     1.0277 N.ar    
  25 C25           -4.2247   -10.0010     0.6726 C.ar    
  26 C26           -4.2839   -11.0925     1.5198 C.ar    
  27 C27           -4.8902   -10.9601     2.7619 C.ar    
  28 C28           -5.4138    -9.7295     3.1140 C.ar    
  29 Cl29           1.3289     2.7368     0.4604 Cl      
  30 H30            0.9543    -0.1144     0.4615 H       
  31 H31           -1.1372    -1.4491     0.3660 H       
  32 H32           -1.4300     3.4269     0.3207 H       
  33 H33           -4.8430     0.9875     1.1112 H       
  34 H34           -4.6186     1.1538    -0.6472 H       
  35 H35           -6.8868     0.2435    -0.0043 H       
  36 H36           -5.9550    -0.8556    -1.0551 H       
  37 H37           -5.0309    -2.8910     2.0736 H       
  38 H38           -4.7304    -2.9239     0.3160 H       
  39 H39           -2.7671    -1.9735     1.4259 H       
  40 H40           -3.7847    -0.7999     2.2961 H       
  41 H41           -8.3150    -1.6218     4.1437 H       
  42 H42           -8.4713    -3.5028     5.7168 H       
  43 H43           -7.5433    -5.6975     5.1197 H       
  44 H44           -6.2859    -4.1366     1.3266 H       
  45 H45           -3.7538   -10.1023    -0.2940 H       
  46 H46           -3.8624   -12.0398     1.2177 H       
  47 H47           -4.9480   -11.7988     3.4400 H       
  48 H48           -5.8919    -9.5915     4.0725 H       
@<TRIPOS>BOND
   1    1    2 ar
   2    1   29 1
   3    1    6 ar
   4    2    3 ar
   5    2   30 1
   6    3    4 ar
   7    3   31 1
   8    4    5 ar
   9    4    7 1
  10    5    6 ar
  11    6   32 1
  12    7    8 1
  13    7   12 1
  14    8    9 1
  15    8   33 1
  16    8   34 1
  17    9   10 1
  18    9   35 1
  19    9   36 1
  20   10   11 1
  21   10   13 am
  22   11   12 1
  23   11   37 1
  24   11   38 1
  25   12   39 1
  26   12   40 1
  27   13   14 1
  28   13   21 2
  29   14   15 ar
  30   14   19 ar
  31   15   16 ar
  32   15   41 1
  33   16   17 ar
  34   16   42 1
  35   17   18 ar
  36   17   43 1
  37   18   19 ar
  38   18   20 1
  39   19   44 1
  40   20   22 3
  41   22   23 1
  42   23   24 ar
  43   23   28 ar
  44   24   25 ar
  45   25   26 ar
  46   25   45 1
  47   26   27 ar
  48   26   46 1
  49   27   28 ar
  50   27   47 1
  51   28   48 1

#	End of record

