#	Name: ASD03430064
#	Creating user name:	WinNT
#	Creation time:	15. 06. 2019 20:40

#	Modifying user name:	WinNT
#	Modification time:	15. 06. 2019 20:40

#	Program:	/corina/corina34_cracker 3.40 0067  02.08.2006

@<TRIPOS>MOLECULE
ASD03430064
  42   46    0    0    0
SMALL
NO_CHARGES


@<TRIPOS>ATOM
   1 C1            -0.1029     1.4241     0.1413 C.ar    
   2 C2            -0.0763     0.0385     0.1035 C.ar    
   3 C3             1.1275    -0.6311     0.0416 C.ar    
   4 C4             2.3290     0.0709     0.0267 C.ar    
   5 C5             2.2985     1.4613     0.0608 C.ar    
   6 C6             1.0907     2.1362     0.1188 C.ar    
   7 O7             3.3964    -0.7773    -0.0084 O.3     
   8 C8             1.4832    -2.0918    -0.0327 C.3     
   9 C9             2.9583    -2.0745    -0.4562 C.3     
  10 C10            0.3960    -3.8327     1.0177 C.ar    
  11 C11            1.2841    -2.7949     1.2769 C.ar    
  12 C12            0.6286    -2.8365    -1.0178 C.2     
  13 N13            0.0316    -3.8313    -0.3315 N.am    
  14 O14            0.5003    -2.5908    -2.1986 O.2     
  15 C15            1.7853    -2.5988     2.5585 C.ar    
  16 C16            1.3937    -3.4509     3.5941 C.ar    
  17 C17            0.5123    -4.4805     3.3353 C.ar    
  18 C18            0.0155    -4.6740     2.0616 C.ar    
  19 C19           -0.8914    -4.7987    -0.9303 C.3     
  20 C20            2.7299    -1.4928     2.8247 C.2     
  21 O21            2.4424    -0.3569     2.5013 O.2     
  22 N22            3.9097    -1.7442     3.4259 N.am    
  23 O23           -1.3006     2.0696     0.1943 O.3     
  24 C24           -1.2745     3.4427     0.5991 C.3     
  25 C25           -0.1458     4.1473    -0.1658 C.3     
  26 O26            1.0882     3.4973     0.1564 O.3     
  27 H27           -1.0015    -0.5183     0.1229 H       
  28 H28            3.2235     2.0185     0.0423 H       
  29 H29            3.0513    -2.1620    -1.5387 H       
  30 H30            3.5147    -2.8657     0.0464 H       
  31 H31            1.7792    -3.3046     4.5923 H       
  32 H32            0.2090    -5.1401     4.1349 H       
  33 H33           -0.6738    -5.4837     1.8728 H       
  34 H34           -1.9104    -4.4172    -0.8647 H       
  35 H35           -0.6278    -4.9528    -1.9766 H       
  36 H36           -0.8229    -5.7457    -0.3950 H       
  37 H37            4.1391    -2.6507     3.6839 H       
  38 H38            4.5294    -1.0186     3.6005 H       
  39 H39           -2.2286     3.9138     0.3628 H       
  40 H40           -1.0878     3.5066     1.6710 H       
  41 H41           -0.3287     4.0768    -1.2381 H       
  42 H42           -0.0984     5.1948     0.1315 H       
@<TRIPOS>BOND
   1    1    2 ar
   2    1    6 ar
   3    1   23 1
   4    2    3 ar
   5    2   27 1
   6    3    4 ar
   7    3    8 1
   8    4    5 ar
   9    4    7 1
  10    5    6 ar
  11    5   28 1
  12    6   26 1
  13    7    9 1
  14    8    9 1
  15    8   11 1
  16    8   12 1
  17    9   29 1
  18    9   30 1
  19   10   11 ar
  20   10   13 1
  21   10   18 ar
  22   11   15 ar
  23   12   13 am
  24   12   14 2
  25   13   19 1
  26   15   16 ar
  27   15   20 1
  28   16   17 ar
  29   16   31 1
  30   17   18 ar
  31   17   32 1
  32   18   33 1
  33   19   34 1
  34   19   35 1
  35   19   36 1
  36   20   21 2
  37   20   22 am
  38   22   37 1
  39   22   38 1
  40   23   24 1
  41   24   25 1
  42   24   39 1
  43   24   40 1
  44   25   26 1
  45   25   41 1
  46   25   42 1

#	End of record

