#	Name: ASD09116374
#	Creating user name:	WinNT
#	Creation time:	15. 06. 2019 21:21

#	Modifying user name:	WinNT
#	Modification time:	15. 06. 2019 21:21

#	Program:	/corina/corina34_cracker 3.40 0067  02.08.2006

@<TRIPOS>MOLECULE
ASD09116374
  64   69    0    0    0
SMALL
NO_CHARGES


@<TRIPOS>ATOM
   1 N1             0.5028     0.7444     0.7206 N.2     
   2 N2             0.6291    -0.6407     0.9135 N.pl3   
   3 C3             1.7175     1.2309     0.6315 C.2     
   4 N4             2.5980     0.2310     0.7573 N.2     
   5 C5             1.9567    -0.9051     0.9282 C.2     
   6 N6             2.5361    -2.1488     1.0935 N.pl3   
   7 C7            -0.4089    -1.5625     1.0614 C.ar    
   8 N8             2.0397     2.5740     0.4365 N.pl3   
   9 C9             3.3743     2.9844     0.4724 C.ar    
  10 C10            3.7927     4.0823    -0.2703 C.ar    
  11 C11            4.3016     2.3009     1.2583 C.ar    
  12 C12            5.6118     2.7415     1.2638 C.ar    
  13 C13            5.9599     3.8468     0.4890 C.ar    
  14 N14            5.0489     4.4757    -0.2421 N.ar    
  15 N15           -0.2144    -2.8348     0.7480 N.ar    
  16 N16           -1.1390    -3.7213     0.8565 N.ar    
  17 C17           -2.3501    -3.4111     1.2906 C.ar    
  18 C18           -2.6413    -2.0963     1.6651 C.ar    
  19 C19           -1.6510    -1.1443     1.5454 C.ar    
  20 C20           -3.4327    -4.4194     1.3653 C.ar    
  21 C21           -4.6761    -4.1168     0.8080 C.ar    
  22 C22           -4.8673    -2.8035     0.1001 C.3     
  23 C23           -5.0269    -1.6544     1.0918 C.3     
  24 C24           -3.9976    -1.7614     2.2139 C.3     
  25 C25           -3.2272    -5.6489     1.9814 C.ar    
  26 C26           -4.2642    -6.5587     2.0549 C.ar    
  27 C27           -5.5009    -6.2464     1.5202 C.ar    
  28 C28           -5.7070    -5.0272     0.8982 C.ar    
  29 C29            7.3625     4.3287     0.4869 C.ar    
  30 C30            8.3469     3.6181     1.1727 C.ar    
  31 C31            7.7010     5.4889    -0.2047 C.ar    
  32 C32            9.0147     5.9342    -0.2026 C.ar    
  33 C33            9.9880     5.2226     0.4885 C.ar    
  34 C34            9.6518     4.0682     1.1702 C.ar    
  35 N35            9.3594     7.0973    -0.8953 N.am    
  36 S36            8.9468     8.5793    -0.2821 S.o2    
  37 O37            9.4540     9.5055    -1.2329 O.2     
  38 O38            7.5520     8.4781    -0.0298 O.2     
  39 C39            9.8686     8.6970     1.2758 C.3     
  40 H40            3.5020    -2.2383     1.0893 H       
  41 H41            1.9770    -2.9322     1.2137 H       
  42 H42            1.3369     3.2230     0.2759 H       
  43 H43            3.0790     4.6188    -0.8779 H       
  44 H44            4.0030     1.4475     1.8490 H       
  45 H45            6.3562     2.2361     1.8612 H       
  46 H46           -1.8311    -0.1125     1.8086 H       
  47 H47           -4.0013    -2.6103    -0.5331 H       
  48 H48           -5.7585    -2.8616    -0.5247 H       
  49 H49           -4.8907    -0.7076     0.5691 H       
  50 H50           -6.0289    -1.6863     1.5198 H       
  51 H51           -4.3056    -2.5419     2.9095 H       
  52 H52           -3.9450    -0.8103     2.7439 H       
  53 H53           -2.2616    -5.8915     2.4001 H       
  54 H54           -4.1088    -7.5158     2.5305 H       
  55 H55           -6.3105    -6.9580     1.5885 H       
  56 H56           -6.6757    -4.7890     0.4842 H       
  57 H57            8.0882     2.7155     1.7063 H       
  58 H58            6.9430     6.0402    -0.7414 H       
  59 H59           11.0105     5.5700     0.4891 H       
  60 H60           10.4117     3.5189     1.7062 H       
  61 H61            9.8403     7.0370    -1.7355 H       
  62 H62           10.9380     8.7105     1.0651 H       
  63 H63            9.5890     9.6138     1.7950 H       
  64 H64            9.6327     7.8376     1.9034 H       
@<TRIPOS>BOND
   1    1    2 1
   2    1    3 2
   3    2    7 1
   4    2    5 1
   5    3    4 1
   6    3    8 1
   7    4    5 2
   8    5    6 1
   9    6   40 1
  10    6   41 1
  11    7   15 ar
  12    7   19 ar
  13    8    9 1
  14    8   42 1
  15    9   10 ar
  16    9   11 ar
  17   10   14 ar
  18   10   43 1
  19   11   12 ar
  20   11   44 1
  21   12   13 ar
  22   12   45 1
  23   13   14 ar
  24   13   29 1
  25   15   16 ar
  26   16   17 ar
  27   17   18 ar
  28   17   20 1
  29   18   19 ar
  30   18   24 1
  31   19   46 1
  32   20   21 ar
  33   20   25 ar
  34   21   22 1
  35   21   28 ar
  36   22   23 1
  37   22   47 1
  38   22   48 1
  39   23   24 1
  40   23   49 1
  41   23   50 1
  42   24   51 1
  43   24   52 1
  44   25   26 ar
  45   25   53 1
  46   26   27 ar
  47   26   54 1
  48   27   28 ar
  49   27   55 1
  50   28   56 1
  51   29   30 ar
  52   29   31 ar
  53   30   34 ar
  54   30   57 1
  55   31   32 ar
  56   31   58 1
  57   32   33 ar
  58   32   35 1
  59   33   34 ar
  60   33   59 1
  61   34   60 1
  62   35   36 am
  63   35   61 1
  64   36   37 2
  65   36   38 2
  66   36   39 1
  67   39   62 1
  68   39   63 1
  69   39   64 1

#	End of record

