#	Name: ASD01903138
#	Creating user name:	WinNT
#	Creation time:	15. 06. 2019 19:54

#	Modifying user name:	WinNT
#	Modification time:	15. 06. 2019 19:54

#	Program:	/corina/corina34_cracker 3.40 0067  02.08.2006

@<TRIPOS>MOLECULE
ASD01903138
  44   46    0    0    0
SMALL
NO_CHARGES


@<TRIPOS>ATOM
   1 C1             1.2686    -1.6628     0.4122 C.ar    
   2 C2             0.3829    -1.0441    -0.4558 C.ar    
   3 C3             0.7827     0.0949    -1.1368 C.ar    
   4 N4             1.9880     0.5936    -0.9696 N.ar    
   5 C5             2.8663     0.0317    -0.1478 C.ar    
   6 C6             2.5324    -1.1151     0.5688 C.ar    
   7 C7             4.2126     0.6293     0.0083 C.2     
   8 N8             4.5416     1.7389    -0.6824 N.am    
   9 O9             5.0206     0.1190     0.7592 O.2     
  10 C10            5.7759     2.3584    -0.4634 C.ar    
  11 C11            6.8993     1.5917    -0.1816 C.ar    
  12 C12            8.1168     2.2067     0.0342 C.ar    
  13 C13            8.2183     3.5844    -0.0301 C.ar    
  14 C14            7.1018     4.3507    -0.3100 C.ar    
  15 C15            5.8825     3.7415    -0.5329 C.ar    
  16 S16            9.7736     4.3651     0.2459 S.o2    
  17 O17            9.4912     5.7211     0.5633 O.2     
  18 O18           10.5088     3.5030     1.1035 O.2     
  19 N19           10.5777     4.3813    -1.2017 N.am    
  20 C20           10.9065     3.1765    -1.8330 C.ar    
  21 C21           10.6669     3.0160    -3.1914 C.ar    
  22 C22           10.9917     1.8266    -3.8136 C.ar    
  23 C23           11.5565     0.7924    -3.0821 C.ar    
  24 C24           11.7957     0.9516    -1.7252 C.ar    
  25 C25           11.4777     2.1428    -1.1027 C.ar    
  26 O26           11.8756    -0.3788    -3.6955 O.3     
  27 C27           12.4541    -1.4009    -2.8815 C.3     
  28 H28            0.9792    -2.5489     0.9577 H       
  29 H29           -0.6091    -1.4459    -0.6005 H       
  30 H30            0.0952     0.5793    -1.8142 H       
  31 H31            3.2480    -1.5713     1.2367 H       
  32 H32            3.9222     2.1077    -1.3314 H       
  33 H33            6.8206     0.5157    -0.1309 H       
  34 H34            8.9906     1.6112     0.2538 H       
  35 H35            7.1843     5.4264    -0.3592 H       
  36 H36            5.0108     4.3406    -0.7515 H       
  37 H37           10.8207     5.2260    -1.6121 H       
  38 H38           10.2265     3.8209    -3.7610 H       
  39 H39           10.8055     1.7015    -4.8701 H       
  40 H40           12.2352     0.1457    -1.1562 H       
  41 H41           11.6643     2.2668    -0.0462 H       
  42 H42           11.7597    -1.6674    -2.0848 H       
  43 H43           12.6598    -2.2794    -3.4931 H       
  44 H44           13.3841    -1.0356    -2.4459 H       
@<TRIPOS>BOND
   1    1    2 ar
   2    1    6 ar
   3    1   28 1
   4    2    3 ar
   5    2   29 1
   6    3    4 ar
   7    3   30 1
   8    4    5 ar
   9    5    6 ar
  10    5    7 1
  11    6   31 1
  12    7    8 am
  13    7    9 2
  14    8   10 1
  15    8   32 1
  16   10   11 ar
  17   10   15 ar
  18   11   12 ar
  19   11   33 1
  20   12   13 ar
  21   12   34 1
  22   13   14 ar
  23   13   16 1
  24   14   15 ar
  25   14   35 1
  26   15   36 1
  27   16   17 2
  28   16   18 2
  29   16   19 am
  30   19   20 1
  31   19   37 1
  32   20   21 ar
  33   20   25 ar
  34   21   22 ar
  35   21   38 1
  36   22   23 ar
  37   22   39 1
  38   23   24 ar
  39   23   26 1
  40   24   25 ar
  41   24   40 1
  42   25   41 1
  43   26   27 1
  44   27   42 1
  45   27   43 1
  46   27   44 1

#	End of record

