#	Name: ASD01208016
#	Creating user name:	WinNT
#	Creation time:	15. 06. 2019 19:09

#	Modifying user name:	WinNT
#	Modification time:	15. 06. 2019 19:09

#	Program:	/corina/corina34_cracker 3.40 0067  02.08.2006

@<TRIPOS>MOLECULE
ASD01208016
  58   60    0    0    0
SMALL
NO_CHARGES


@<TRIPOS>ATOM
   1 C1            -0.0844     1.4339     0.0275 C.ar    
   2 C2             0.0184     0.0510    -0.0131 C.ar    
   3 C3            -1.1248    -0.7353     0.0265 C.ar    
   4 C4            -2.3734    -0.1417     0.1073 C.ar    
   5 C5            -2.4812     1.2493     0.1489 C.ar    
   6 C6            -1.3290     2.0357     0.1137 C.ar    
   7 C7            -3.8114     1.8872     0.2352 C.2     
   8 C8            -4.0547     3.2409     0.2824 C.2     
   9 N9            -5.0129     1.2332     0.2758 N.pl3   
  10 C10           -6.0175     2.1682     0.3539 C.2     
  11 C11           -5.4372     3.4194     0.3589 C.2     
  12 O12            1.0381     2.1991    -0.0116 O.3     
  13 C13            0.8561     3.6143    -0.0907 C.3     
  14 C14            2.0901     4.2521    -0.7319 C.3     
  15 O15            3.2212     4.0635     0.1209 O.3     
  16 C16            0.6609     4.1828     1.3162 C.3     
  17 O17           -1.0186    -2.0894    -0.0145 O.3     
  18 C18           -1.4878    -2.7330    -1.1154 C.ar    
  19 C19           -1.9388    -2.0046    -2.2069 C.ar    
  20 C20           -1.5114    -4.1199    -1.1524 C.ar    
  21 C21           -1.9884    -4.7717    -2.2730 C.ar    
  22 C22           -2.4417    -4.0434    -3.3574 C.ar    
  23 C23           -2.4148    -2.6614    -3.3251 C.ar    
  24 S24           -3.0485    -4.8781    -4.7857 S.o2    
  25 C25           -4.8229    -5.0837    -4.4701 C.3     
  26 O26           -2.8341    -3.9577    -5.8469 O.2     
  27 O27           -2.3889    -6.1365    -4.7628 O.2     
  28 C28            4.4328     4.6250    -0.3880 C.3     
  29 C29           -7.4551     1.8849     0.4165 C.2     
  30 N30           -8.3063     2.8617     0.4883 N.2     
  31 C31           -7.9437     0.4595     0.3976 C.3     
  32 O32           -9.6943     2.5882     0.5488 O.3     
  33 H33            0.9906    -0.4150    -0.0762 H       
  34 H34           -3.2624    -0.7541     0.1378 H       
  35 H35           -1.4080     3.1124     0.1457 H       
  36 H36           -3.3107     4.0235     0.2641 H       
  37 H37           -5.1351     0.2712     0.2528 H       
  38 H38           -5.9573     4.3645     0.4123 H       
  39 H39           -0.0229     3.8342    -0.6966 H       
  40 H40            2.2810     3.7838    -1.6975 H       
  41 H41            1.9157     5.3187    -0.8735 H       
  42 H42            0.5220     5.2623     1.2559 H       
  43 H43           -0.2183     3.7284     1.7730 H       
  44 H44            1.5398     3.9629     1.9222 H       
  45 H45           -1.9180    -0.9251    -2.1822 H       
  46 H46           -1.1568    -4.6892    -0.3059 H       
  47 H47           -2.0070    -5.8512    -2.3022 H       
  48 H48           -2.7698    -2.0948    -4.1733 H       
  49 H49           -5.2853    -4.1047    -4.3437 H       
  50 H50           -5.2848    -5.5975    -5.3132 H       
  51 H51           -4.9650    -5.6723    -3.5638 H       
  52 H52            4.6722     4.1644    -1.3464 H       
  53 H53            4.3069     5.6993    -0.5225 H       
  54 H54            5.2433     4.4396     0.3169 H       
  55 H55           -8.0107     0.0848     1.4190 H       
  56 H56           -8.9277     0.4188    -0.0695 H       
  57 H57           -7.2462    -0.1562    -0.1702 H       
  58 H58          -10.2491     3.3786     0.6002 H       
@<TRIPOS>BOND
   1    1    2 ar
   2    1   12 1
   3    1    6 ar
   4    2    3 ar
   5    2   33 1
   6    3    4 ar
   7    3   17 1
   8    4    5 ar
   9    4   34 1
  10    5    6 ar
  11    5    7 1
  12    6   35 1
  13    7    8 2
  14    7    9 1
  15    8   11 1
  16    8   36 1
  17    9   10 1
  18    9   37 1
  19   10   11 2
  20   10   29 1
  21   11   38 1
  22   12   13 1
  23   13   14 1
  24   13   16 1
  25   13   39 1
  26   14   15 1
  27   14   40 1
  28   14   41 1
  29   15   28 1
  30   16   42 1
  31   16   43 1
  32   16   44 1
  33   17   18 1
  34   18   19 ar
  35   18   20 ar
  36   19   23 ar
  37   19   45 1
  38   20   21 ar
  39   20   46 1
  40   21   22 ar
  41   21   47 1
  42   22   23 ar
  43   22   24 1
  44   23   48 1
  45   24   25 1
  46   24   26 2
  47   24   27 2
  48   25   49 1
  49   25   50 1
  50   25   51 1
  51   28   52 1
  52   28   53 1
  53   28   54 1
  54   29   30 2
  55   29   31 1
  56   30   32 1
  57   31   55 1
  58   31   56 1
  59   31   57 1
  60   32   58 1

#	End of record

