#	Name: ASD01410111
#	Creating user name:	WinNT
#	Creation time:	15. 06. 2019 19:16

#	Modifying user name:	WinNT
#	Modification time:	15. 06. 2019 19:16

#	Program:	/corina/corina34_cracker 3.40 0067  02.08.2006

@<TRIPOS>MOLECULE
ASD01410111
  35   38    0    0    0
SMALL
NO_CHARGES


@<TRIPOS>ATOM
   1 C1            -0.0229     1.3980    -0.1884 C.ar    
   2 C2             0.0011     0.0098    -0.1369 C.ar    
   3 C3            -1.1847    -0.6991    -0.0633 C.ar    
   4 C4            -2.4038    -0.0092    -0.0413 C.ar    
   5 C5            -2.4280     1.3944    -0.0934 C.ar    
   6 C6            -1.2270     2.0866    -0.1612 C.ar    
   7 C7            -3.8065    -0.4476     0.0306 C.2     
   8 C8            -4.5853     0.8018     0.0141 C.2     
   9 O9            -3.7070     1.8291    -0.0593 O.3     
  10 O10           -4.2291    -1.5893     0.0901 O.2     
  11 C11           -5.9367     0.9045     0.0632 C.2     
  12 C12           -6.5689     2.2248     0.1873 C.ar    
  13 O13            1.1438     2.0878    -0.2606 O.3     
  14 O14           -1.1671    -2.0548    -0.0131 O.3     
  15 C15           -5.7816     3.3502     0.3954 C.ar    
  16 C16           -6.3931     4.6064     0.5127 C.ar    
  17 C17           -7.8046     4.7087     0.4171 C.ar    
  18 C18           -8.5759     3.5499     0.2059 C.ar    
  19 C19           -7.9702     2.3423     0.0886 C.ar    
  20 C20           -5.6298     5.7692     0.7244 C.ar    
  21 C21           -6.2538     6.9737     0.8344 C.ar    
  22 C22           -7.6406     7.0735     0.7403 C.ar    
  23 C23           -8.4113     5.9696     0.5358 C.ar    
  24 H24            0.9446    -0.5154    -0.1546 H       
  25 H25           -1.2301     3.1658    -0.2015 H       
  26 H26           -6.5481     0.0158     0.0110 H       
  27 H27            1.4471     2.2543    -1.1635 H       
  28 H28           -1.1270    -2.4147     0.8835 H       
  29 H29           -4.7079     3.2582     0.4666 H       
  30 H30           -9.6509     3.6234     0.1329 H       
  31 H31           -8.5694     1.4586    -0.0737 H       
  32 H32           -4.5543     5.7062     0.7997 H       
  33 H33           -5.6658     7.8648     0.9972 H       
  34 H34           -8.1113     8.0413     0.8310 H       
  35 H35           -9.4849     6.0634     0.4655 H       
@<TRIPOS>BOND
   1    1    2 ar
   2    1   13 1
   3    1    6 ar
   4    2    3 ar
   5    2   24 1
   6    3    4 ar
   7    3   14 1
   8    4    5 ar
   9    4    7 1
  10    5    6 ar
  11    5    9 1
  12    6   25 1
  13    7    8 1
  14    7   10 2
  15    8    9 1
  16    8   11 2
  17   11   12 1
  18   11   26 1
  19   12   15 ar
  20   12   19 ar
  21   13   27 1
  22   14   28 1
  23   15   16 ar
  24   15   29 1
  25   16   17 ar
  26   16   20 ar
  27   17   18 ar
  28   17   23 ar
  29   18   19 ar
  30   18   30 1
  31   19   31 1
  32   20   21 ar
  33   20   32 1
  34   21   22 ar
  35   21   33 1
  36   22   23 ar
  37   22   34 1
  38   23   35 1

#	End of record

