#	Name: ASD01903209
#	Creating user name:	WinNT
#	Creation time:	15. 06. 2019 19:54

#	Modifying user name:	WinNT
#	Modification time:	15. 06. 2019 19:54

#	Program:	/corina/corina34_cracker 3.40 0067  02.08.2006

@<TRIPOS>MOLECULE
ASD01903209
  26   28    0    0    0
SMALL
NO_CHARGES


@<TRIPOS>ATOM
   1 S1            -0.0242     1.7576    -0.0296 S.3     
   2 C2             0.0013    -0.0032    -0.0096 C.2     
   3 N3             1.2321    -0.4153    -0.0142 N.2     
   4 C4             2.1769     0.5141    -0.0320 C.2     
   5 C5             1.7377     1.7832    -0.0433 C.2     
   6 N6            -1.1185    -0.8216     0.0090 N.pl3   
   7 C7            -2.3869    -0.2623     0.1294 C.ar    
   8 C8             3.6231     0.1751    -0.0386 C.2     
   9 C9             4.6937     1.0923    -0.0563 C.2     
  10 N10            5.8111     0.4121    -0.0568 N.2     
  11 N11            5.5005    -0.9530    -0.0397 N.pl3   
  12 C12            4.1566    -1.0798    -0.0228 C.2     
  13 N13           -2.5132     1.0402     0.3311 N.ar    
  14 C14           -3.6973     1.6102     0.4504 C.ar    
  15 C15           -4.8546     0.8622     0.3688 C.ar    
  16 C16           -4.7658    -0.5076     0.1580 C.ar    
  17 C17           -3.5112    -1.0759     0.0312 C.ar    
  18 F18            4.5846     2.4388    -0.0709 F       
  19 H19            2.3578     2.6674    -0.0581 H       
  20 H20           -1.0174    -1.7837    -0.0619 H       
  21 H21            6.1405    -1.6818    -0.0368 H       
  22 H22            3.6038    -2.0075    -0.0072 H       
  23 H23           -3.7618     2.6758     0.6143 H       
  24 H24           -5.8194     1.3374     0.4683 H       
  25 H25           -5.6564    -1.1148     0.0908 H       
  26 H26           -3.4055    -2.1379    -0.1339 H       
@<TRIPOS>BOND
   1    1    2 1
   2    1    5 1
   3    2    3 2
   4    2    6 1
   5    3    4 1
   6    4    5 2
   7    4    8 1
   8    5   19 1
   9    6    7 1
  10    6   20 1
  11    7   13 ar
  12    7   17 ar
  13    8    9 1
  14    8   12 2
  15    9   10 2
  16    9   18 1
  17   10   11 1
  18   11   12 1
  19   11   21 1
  20   12   22 1
  21   13   14 ar
  22   14   15 ar
  23   14   23 1
  24   15   16 ar
  25   15   24 1
  26   16   17 ar
  27   16   25 1
  28   17   26 1

#	End of record

