#	Name: ASD03540240
#	Creating user name:	WinNT
#	Creation time:	15. 06. 2019 20:42

#	Modifying user name:	WinNT
#	Modification time:	15. 06. 2019 20:42

#	Program:	/corina/corina34_cracker 3.40 0067  02.08.2006

@<TRIPOS>MOLECULE
ASD03540240
  46   48    0    0    0
SMALL
NO_CHARGES


@<TRIPOS>ATOM
   1 C1            -0.0161     1.3365     0.0094 C.2     
   2 N2             0.0021    -0.0041     0.0020 N.am    
   3 C3             1.1931    -0.7075    -0.0132 C.2     
   4 C4             2.3928    -0.0051    -0.0209 C.2     
   5 C5             2.3194     1.4734    -0.0115 C.2     
   6 N6             1.1110     2.0661     0.0025 N.am    
   7 C7             3.5129    -0.8381    -0.0361 C.2     
   8 C8             3.2256    -2.1516    -0.0404 C.2     
   9 S9             1.4874    -2.3902    -0.0250 S.3     
  10 C10            4.2183    -3.2259    -0.0565 C.2     
  11 O11            5.4048    -2.9577    -0.0671 O.2     
  12 O12            3.8179    -4.5143    -0.0595 O.3     
  13 O13            3.3358     2.1426    -0.0175 O.2     
  14 O14           -1.0880     1.9101     0.0175 O.2     
  15 C15           -1.2652    -0.7390     0.0107 C.3     
  16 C16            1.0243     3.5285     0.0113 C.3     
  17 C17            1.0079     4.0298     1.4567 C.3     
  18 O18            2.2754     3.7163     2.0921 O.3     
  19 C19            2.4246     4.0917     3.3722 C.2     
  20 O20            1.5260     4.6633     3.9428 O.2     
  21 C21            3.7130     3.8002     4.0976 C.3     
  22 C22            4.8413    -5.5116    -0.0754 C.3     
  23 C23            4.2094    -6.8798    -0.0765 C.ar    
  24 C24            3.9074    -7.5007    -1.2740 C.ar    
  25 C25            3.3277    -8.7556    -1.2750 C.ar    
  26 C26            3.0505    -9.3898    -0.0785 C.ar    
  27 C27            3.3533    -8.7693     1.1191 C.ar    
  28 C28            3.9370    -7.5162     1.1200 C.ar    
  29 H29            4.5244    -0.4597    -0.0438 H       
  30 H30           -2.0950    -0.0322     0.0228 H       
  31 H31           -1.3307    -1.3609    -0.8820 H       
  32 H32           -1.3130    -1.3705     0.8978 H       
  33 H33            1.8863     3.9467    -0.5086 H       
  34 H34            0.1095     3.8412    -0.4921 H       
  35 H35            0.8543     5.1089     1.4653 H       
  36 H36            0.1985     3.5432     2.0009 H       
  37 H37            4.5391     4.2895     3.5816 H       
  38 H38            3.6483     4.1766     5.1185 H       
  39 H39            3.8834     2.7238     4.1172 H       
  40 H40            5.4510    -5.3923    -0.9710 H       
  41 H41            5.4691    -5.4021     0.8089 H       
  42 H42            4.1240    -7.0051    -2.2089 H       
  43 H43            3.0911    -9.2404    -2.2107 H       
  44 H44            2.5970   -10.3700    -0.0792 H       
  45 H45            3.1364    -9.2647     2.0539 H       
  46 H46            4.1770    -7.0330     2.0556 H       
@<TRIPOS>BOND
   1    1    2 am
   2    1    6 am
   3    1   14 2
   4    2    3 1
   5    2   15 1
   6    3    4 2
   7    3    9 1
   8    4    5 1
   9    4    7 1
  10    5    6 am
  11    5   13 2
  12    6   16 1
  13    7    8 2
  14    7   29 1
  15    8    9 1
  16    8   10 1
  17   10   11 2
  18   10   12 1
  19   12   22 1
  20   15   30 1
  21   15   31 1
  22   15   32 1
  23   16   17 1
  24   16   33 1
  25   16   34 1
  26   17   18 1
  27   17   35 1
  28   17   36 1
  29   18   19 1
  30   19   20 2
  31   19   21 1
  32   21   37 1
  33   21   38 1
  34   21   39 1
  35   22   23 1
  36   22   40 1
  37   22   41 1
  38   23   24 ar
  39   23   28 ar
  40   24   25 ar
  41   24   42 1
  42   25   26 ar
  43   25   43 1
  44   26   27 ar
  45   26   44 1
  46   27   28 ar
  47   27   45 1
  48   28   46 1

#	End of record

