#	Name: ASD01148472
#	Creating user name:	WinNT
#	Creation time:	15. 06. 2019 19:02

#	Modifying user name:	WinNT
#	Modification time:	15. 06. 2019 19:02

#	Program:	/corina/corina34_cracker 3.40 0067  02.08.2006

@<TRIPOS>MOLECULE
ASD01148472
  61   64    0    0    0
SMALL
NO_CHARGES


@<TRIPOS>ATOM
   1 C1             0.3634     1.8395     0.0687 C.ar    
   2 C2             0.4617     0.4627    -0.0062 C.ar    
   3 C3            -0.6824    -0.3082    -0.0934 C.ar    
   4 C4            -1.9248     0.2977    -0.1053 C.ar    
   5 C5            -2.0232     1.6745    -0.0296 C.ar    
   6 C6            -0.8792     2.4451     0.0621 C.ar    
   7 C7            -3.3776     2.3350    -0.0430 C.3     
   8 O8            -4.3699     1.4904     0.5747 O.3     
   9 C9            -3.3985     3.5746     0.8828 C.3     
  10 C10           -3.9254     3.0040     2.1858 C.2     
  11 N11           -4.4454     1.8483     1.9405 N.2     
  12 C12           -3.8551     3.6578     3.5074 C.ar    
  13 C13           -4.3822     3.0181     4.6324 C.ar    
  14 C14           -3.2566     4.9137     3.6345 C.ar    
  15 C15           -3.1911     5.5234     4.8672 C.ar    
  16 C16           -3.7231     4.8863     5.9906 C.ar    
  17 C17           -4.3166     3.6278     5.8646 C.ar    
  18 C18           -3.6524     5.5408     7.3139 C.2     
  19 O19           -4.2115     5.0402     8.2702 O.2     
  20 N20           -2.9679     6.6925     7.4604 N.am    
  21 C21           -4.8906     2.9407     7.0768 C.3     
  22 C22           -3.7874     2.7086    -1.4690 C.3     
  23 F23           -3.8265     1.5555    -2.2602 F       
  24 F24           -5.0533     3.3039    -1.4496 F       
  25 F25           -2.8572     3.6079    -2.0011 F       
  26 N26           -2.9008     7.3128     8.7147 N.pl3   
  27 C27           -2.0346     6.7610     9.7594 C.3     
  28 C28           -3.6597     8.4574     8.9693 C.ar    
  29 C29           -3.5944     9.0737    10.2125 C.ar    
  30 C30           -4.3458    10.2056    10.4606 C.ar    
  31 C31           -5.1625    10.7254     9.4732 C.ar    
  32 C32           -5.2303    10.1141     8.2347 C.ar    
  33 C33           -4.4772     8.9853     7.9780 C.ar    
  34 C34           -0.5752    -1.8091    -0.1760 C.3     
  35 F35            0.7728    -2.1826    -0.1472 F       
  36 F36           -1.2419    -2.3847     0.9109 F       
  37 F37           -1.1568    -2.2532    -1.3683 F       
  38 C38            1.6107     2.6800     0.1637 C.3     
  39 F39            2.7352     1.8478     0.1587 F       
  40 F40            1.6704     3.5512    -0.9293 F       
  41 F41            1.5843     3.4211     1.3500 F       
  42 H42            1.4324    -0.0106     0.0031 H       
  43 H43           -2.8187    -0.3045    -0.1742 H       
  44 H44           -0.9561     3.5208     0.1213 H       
  45 H45           -2.3938     3.9762     1.0145 H       
  46 H46           -4.0732     4.3371     0.4935 H       
  47 H47           -4.8413     2.0454     4.5350 H       
  48 H48           -2.8449     5.4061     2.7660 H       
  49 H49           -2.7281     6.4941     4.9656 H       
  50 H50           -2.5217     7.0919     6.6973 H       
  51 H51           -5.8980     3.3130     7.2625 H       
  52 H52           -4.9271     1.8655     6.9017 H       
  53 H53           -4.2617     3.1466     7.9429 H       
  54 H54           -1.0449     7.2118     9.6865 H       
  55 H55           -2.4618     6.9788    10.7383 H       
  56 H56           -1.9526     5.6817     9.6309 H       
  57 H57           -2.9570     8.6680    10.9842 H       
  58 H58           -4.2957    10.6850    11.4271 H       
  59 H59           -5.7491    11.6107     9.6699 H       
  60 H60           -5.8694    10.5225     7.4658 H       
  61 H61           -4.5306     8.5083     7.0105 H       
@<TRIPOS>BOND
   1    1    2 ar
   2    1   38 1
   3    1    6 ar
   4    2    3 ar
   5    2   42 1
   6    3    4 ar
   7    3   34 1
   8    4    5 ar
   9    4   43 1
  10    5    6 ar
  11    5    7 1
  12    6   44 1
  13    7    8 1
  14    7    9 1
  15    7   22 1
  16    8   11 1
  17    9   10 1
  18    9   45 1
  19    9   46 1
  20   10   11 2
  21   10   12 1
  22   12   13 ar
  23   12   14 ar
  24   13   17 ar
  25   13   47 1
  26   14   15 ar
  27   14   48 1
  28   15   16 ar
  29   15   49 1
  30   16   17 ar
  31   16   18 1
  32   17   21 1
  33   18   19 2
  34   18   20 am
  35   20   26 1
  36   20   50 1
  37   21   51 1
  38   21   52 1
  39   21   53 1
  40   22   23 1
  41   22   24 1
  42   22   25 1
  43   26   27 1
  44   26   28 1
  45   27   54 1
  46   27   55 1
  47   27   56 1
  48   28   29 ar
  49   28   33 ar
  50   29   30 ar
  51   29   57 1
  52   30   31 ar
  53   30   58 1
  54   31   32 ar
  55   31   59 1
  56   32   33 ar
  57   32   60 1
  58   33   61 1
  59   34   35 1
  60   34   36 1
  61   34   37 1
  62   38   39 1
  63   38   40 1
  64   38   41 1

#	End of record

