#	Name: ASD03110030
#	Creating user name:	WinNT
#	Creation time:	15. 06. 2019 20:33

#	Modifying user name:	WinNT
#	Modification time:	15. 06. 2019 20:33

#	Program:	/corina/corina34_cracker 3.40 0067  02.08.2006

@<TRIPOS>MOLECULE
ASD03110030
  46   49    0    0    0
SMALL
NO_CHARGES


@<TRIPOS>ATOM
   1 C1            -0.0167     1.3837     0.0096 C.ar    
   2 C2             0.0021    -0.0041     0.0020 C.ar    
   3 C3             1.2033    -0.6765    -0.0126 C.ar    
   4 C4             2.4013     0.0355    -0.0198 C.ar    
   5 C5             2.3914     1.4362    -0.0127 C.ar    
   6 C6             1.1424     2.0967     0.0024 C.ar    
   7 S7             4.0773    -0.5072    -0.0382 S.3     
   8 C8             4.6287     1.1626    -0.0350 C.2     
   9 N9             3.6194     1.9666    -0.0215 N.2     
  10 C10            6.0454     1.5847    -0.0454 C.ar    
  11 C11            6.3691     2.9434    -0.0416 C.ar    
  12 C12            7.0599     0.6249    -0.0531 C.ar    
  13 C13            8.3792     1.0176    -0.0618 C.ar    
  14 C14            8.7033     2.3767    -0.0635 C.ar    
  15 C15            7.6882     3.3368    -0.0513 C.ar    
  16 C16           10.1190     2.7986    -0.0723 C.2     
  17 O17           11.0025     1.9629    -0.0782 O.2     
  18 N18           10.4315     4.1096    -0.0739 N.am    
  19 N19           11.7742     4.5097    -0.0823 N.2     
  20 C20           12.0752     5.7726    -0.0839 C.2     
  21 C21           13.4877     6.1935    -0.0927 C.ar    
  22 C22           14.5047     5.2345    -0.0995 C.ar    
  23 C23           13.8138     7.5523    -0.1002 C.ar    
  24 C24           15.1358     7.9438    -0.1090 C.ar    
  25 C25           16.1451     6.9917    -0.1104 C.ar    
  26 C26           15.8281     5.6353    -0.1082 C.ar    
  27 O27           16.8204     4.7051    -0.1092 O.3     
  28 I28           14.0251     3.1951    -0.0956 I       
  29 O29           17.4467     7.3836    -0.1195 O.3     
  30 C30           17.7008     8.7898    -0.1272 C.3     
  31 H31           -0.9630     1.9042     0.0169 H       
  32 H32           -0.9259    -0.5566     0.0079 H       
  33 H33            1.2173    -1.7564    -0.0182 H       
  34 H34            1.1074     3.1761     0.0078 H       
  35 H35            5.5845     3.6854    -0.0315 H       
  36 H36            6.8093    -0.4257    -0.0518 H       
  37 H37            9.1637     0.2753    -0.0671 H       
  38 H38            7.9384     4.3874    -0.0530 H       
  39 H39            9.7269     4.7762    -0.0692 H       
  40 H40           11.2906     6.5147    -0.0786 H       
  41 H41           13.0304     8.2957    -0.0995 H       
  42 H42           15.3864     8.9943    -0.1151 H       
  43 H43           17.1091     4.4371     0.7739 H       
  44 H44           17.2547     9.2347    -1.0167 H       
  45 H45           17.2648     9.2427     0.7632 H       
  46 H46           18.7767     8.9646    -0.1341 H       
@<TRIPOS>BOND
   1    1    2 ar
   2    1    6 ar
   3    1   31 1
   4    2    3 ar
   5    2   32 1
   6    3    4 ar
   7    3   33 1
   8    4    5 ar
   9    4    7 1
  10    5    6 ar
  11    5    9 1
  12    6   34 1
  13    7    8 1
  14    8    9 2
  15    8   10 1
  16   10   11 ar
  17   10   12 ar
  18   11   15 ar
  19   11   35 1
  20   12   13 ar
  21   12   36 1
  22   13   14 ar
  23   13   37 1
  24   14   15 ar
  25   14   16 1
  26   15   38 1
  27   16   17 2
  28   16   18 am
  29   18   19 1
  30   18   39 1
  31   19   20 2
  32   20   21 1
  33   20   40 1
  34   21   22 ar
  35   21   23 ar
  36   22   28 1
  37   22   26 ar
  38   23   24 ar
  39   23   41 1
  40   24   25 ar
  41   24   42 1
  42   25   26 ar
  43   25   29 1
  44   26   27 1
  45   27   43 1
  46   29   30 1
  47   30   44 1
  48   30   45 1
  49   30   46 1

#	End of record

