#	Name: ASD01881869
#	Creating user name:	WinNT
#	Creation time:	15. 06. 2019 19:43

#	Modifying user name:	WinNT
#	Modification time:	15. 06. 2019 19:43

#	Program:	/corina/corina34_cracker 3.40 0067  02.08.2006

@<TRIPOS>MOLECULE
ASD01881869
  42   45    0    0    0
SMALL
NO_CHARGES


@<TRIPOS>ATOM
   1 N1            -0.0154     1.2839     0.0091 N.pl3   
   2 N2             0.0021    -0.0041     0.0020 N.2     
   3 N3             1.2033    -0.4649    -0.0119 N.2     
   4 C4             2.0741     0.5645    -0.0147 C.ar    
   5 C5             1.2843     1.7298    -0.0009 C.ar    
   6 C6             3.4670     0.6759    -0.0271 C.ar    
   7 C7             4.0484     1.9285    -0.0255 C.ar    
   8 C8             3.2560     3.0739    -0.0118 C.ar    
   9 C9             1.8924     2.9784    -0.0004 C.ar    
  10 O10            5.4033     2.0444    -0.0370 O.3     
  11 C11            5.9411     3.3683    -0.0346 C.3     
  12 O12            7.9229     1.2827     0.0969 O.3     
  13 C13            8.0750     2.3734     1.0147 C.3     
  14 C14            7.4694     3.2979    -0.0487 C.3     
  15 C15            8.0498     2.2238    -0.9769 C.3     
  16 C16            8.1432     4.6672    -0.1593 C.3     
  17 C17            7.5271     5.4462    -1.3231 C.3     
  18 C18           -1.2133     2.1272     0.0196 C.3     
  19 C19           -1.6228     2.4135     1.4657 C.3     
  20 C20           -2.7884     3.3784     1.6921 C.3     
  21 C21           -2.9777     1.8797     1.9352 C.3     
  22 Br22           4.5472    -0.8761    -0.0451 Br      
  23 H23            3.7236     4.0474    -0.0103 H       
  24 H24            1.2882     3.8735     0.0099 H       
  25 H25            5.5939     3.9031    -0.9187 H       
  26 H26            5.6098     3.8935     0.8612 H       
  27 H27            7.4568     2.2773     1.9073 H       
  28 H28            9.1152     2.6027     1.2458 H       
  29 H29            9.0834     2.4141    -1.2658 H       
  30 H30            7.4095     1.9967    -1.8293 H       
  31 H31            7.9947     5.2211     0.7677 H       
  32 H32            9.2104     4.5338    -0.3359 H       
  33 H33            7.6756     4.8923    -2.2501 H       
  34 H34            6.4598     5.5796    -1.1466 H       
  35 H35            8.0071     6.4216    -1.4019 H       
  36 H36           -1.0007     3.0667    -0.4906 H       
  37 H37           -2.0254     1.6113    -0.4926 H       
  38 H38           -0.8089     2.4286     2.1906 H       
  39 H39           -2.7415     4.0280     2.5661 H       
  40 H40           -3.2635     3.8093     0.8108 H       
  41 H41           -3.5773     1.3246     1.2137 H       
  42 H42           -3.0553     1.5434     2.9691 H       
@<TRIPOS>BOND
   1    1    2 1
   2    1    5 1
   3    1   18 1
   4    2    3 2
   5    3    4 1
   6    4    5 ar
   7    4    6 ar
   8    5    9 ar
   9    6    7 ar
  10    6   22 1
  11    7    8 ar
  12    7   10 1
  13    8    9 ar
  14    8   23 1
  15    9   24 1
  16   10   11 1
  17   11   14 1
  18   11   25 1
  19   11   26 1
  20   12   13 1
  21   12   15 1
  22   13   14 1
  23   13   27 1
  24   13   28 1
  25   14   15 1
  26   14   16 1
  27   15   29 1
  28   15   30 1
  29   16   17 1
  30   16   31 1
  31   16   32 1
  32   17   33 1
  33   17   34 1
  34   17   35 1
  35   18   19 1
  36   18   36 1
  37   18   37 1
  38   19   20 1
  39   19   21 1
  40   19   38 1
  41   20   21 1
  42   20   39 1
  43   20   40 1
  44   21   41 1
  45   21   42 1

#	End of record

