#	Name: ASD01918034
#	Creating user name:	WinNT
#	Creation time:	15. 06. 2019 20:10

#	Modifying user name:	WinNT
#	Modification time:	15. 06. 2019 20:10

#	Program:	/corina/corina34_cracker 3.40 0067  02.08.2006

@<TRIPOS>MOLECULE
ASD01918034
  41   44    0    0    0
SMALL
NO_CHARGES


@<TRIPOS>ATOM
   1 N1             4.8253    -0.4043    -2.1402 N.ar    
   2 C2             5.2915     0.2917    -3.1578 C.ar    
   3 C3             5.1764     1.6746    -3.1854 C.ar    
   4 C4             4.5603     2.3233    -2.1218 C.ar    
   5 C5             4.0817     1.5534    -1.0672 C.ar    
   6 C6             4.2350     0.1750    -1.1136 C.ar    
   7 O7             3.4725     2.1431    -0.0052 O.3     
   8 C8             3.4500     3.5022     0.0444 C.2     
   9 N9             2.1949     5.5135    -0.0211 N.pl3   
  10 C10            2.2665     4.1538    -0.0651 C.2     
  11 C11            4.6507     4.2060     0.2137 C.2     
  12 C12            4.6244     5.5938     0.2644 C.2     
  13 C13            3.3311     6.2681     0.1376 C.2     
  14 C14            5.8647     6.3666     0.4415 C.2     
  15 N15            5.8191     7.7128     0.4883 N.am    
  16 C16            6.9755     8.4398     0.7611 C.ar    
  17 O17            6.9308     5.7903     0.5456 O.2     
  18 C18            1.1684     6.4046    -0.1029 C.2     
  19 N19            1.6809     7.6036    -0.0065 N.2     
  20 N20            2.9574     7.5322     0.1420 N.2     
  21 O21            5.6602     2.3849    -4.2383 O.3     
  22 N22            8.1362     7.8107     0.8662 N.ar    
  23 C23            6.9011     9.8189     0.9148 C.ar    
  24 C24            8.0573    10.5309     1.1858 C.ar    
  25 C25            9.2528     9.8364     1.2941 C.ar    
  26 C26            9.2558     8.4624     1.1238 C.ar    
  27 C27            6.2799     1.6436    -5.2912 C.3     
  28 F28           10.4176     7.7800     1.2229 F       
  29 H29            5.7692    -0.2203    -3.9800 H       
  30 H30            4.4561     3.3982    -2.1144 H       
  31 H31            3.8663    -0.4305    -0.2989 H       
  32 H32            1.3591     3.5817    -0.1905 H       
  33 H33            5.5865     3.6745     0.3041 H       
  34 H34            4.9810     8.1754     0.3320 H       
  35 H35            0.1231     6.1651    -0.2310 H       
  36 H36            5.9535    10.3289     0.8237 H       
  37 H37            8.0288    11.6034     1.3096 H       
  38 H38           10.1724    10.3623     1.5044 H       
  39 H39            7.1318     1.0915    -4.8942 H       
  40 H40            5.5597     0.9443    -5.7158 H       
  41 H41            6.6209     2.3296    -6.0666 H       
@<TRIPOS>BOND
   1    1    2 ar
   2    1    6 ar
   3    2    3 ar
   4    2   29 1
   5    3    4 ar
   6    3   21 1
   7    4    5 ar
   8    4   30 1
   9    5    6 ar
  10    5    7 1
  11    6   31 1
  12    7    8 1
  13    8   11 1
  14    8   10 2
  15    9   10 1
  16    9   18 1
  17    9   13 1
  18   10   32 1
  19   11   12 2
  20   11   33 1
  21   12   13 1
  22   12   14 1
  23   13   20 2
  24   14   15 am
  25   14   17 2
  26   15   16 1
  27   15   34 1
  28   16   23 ar
  29   16   22 ar
  30   18   19 2
  31   18   35 1
  32   19   20 1
  33   21   27 1
  34   22   26 ar
  35   23   24 ar
  36   23   36 1
  37   24   25 ar
  38   24   37 1
  39   25   26 ar
  40   25   38 1
  41   26   28 1
  42   27   39 1
  43   27   40 1
  44   27   41 1

#	End of record

