#	Name: ASD01410545
#	Creating user name:	WinNT
#	Creation time:	15. 06. 2019 19:18

#	Modifying user name:	WinNT
#	Modification time:	15. 06. 2019 19:18

#	Program:	/corina/corina34_cracker 3.40 0067  02.08.2006

@<TRIPOS>MOLECULE
ASD01410545
  76   78    0    0    0
SMALL
NO_CHARGES


@<TRIPOS>ATOM
   1 C1            -0.4669     1.1967    -1.5341 C.ar    
   2 C2             0.2745     1.4432    -2.6812 C.ar    
   3 C3             1.6182     1.1252    -2.6986 C.ar    
   4 N4             2.2008     0.5925    -1.6416 N.ar    
   5 C5             1.5278     0.3427    -0.5302 C.ar    
   6 C6             0.1733     0.6370    -0.4419 C.ar    
   7 O7             2.1669    -0.2061     0.5332 O.3     
   8 C8             3.4705    -0.5613     0.3809 C.ar    
   9 C9             4.4499     0.4206     0.2918 C.ar    
  10 C10            5.7761     0.0711     0.1371 C.ar    
  11 C11            6.1409    -1.2663     0.0689 C.ar    
  12 C12            5.1568    -2.2625     0.1582 C.ar    
  13 C13            3.8179    -1.8986     0.3208 C.ar    
  14 N14            7.4806    -1.6186    -0.0883 N.am    
  15 C15            8.0050    -1.7395    -1.3240 C.2     
  16 C16            8.3182    -1.8575     1.0896 C.3     
  17 O17            9.1375    -2.1503    -1.4645 O.2     
  18 C18            7.1844    -1.3643    -2.5309 C.3     
  19 C19            7.5848    -2.2472    -3.7145 C.3     
  20 C20            6.7516    -1.8663    -4.9399 C.3     
  21 C21            7.0024    -0.3983    -5.2908 C.3     
  22 C22            6.6020     0.4846    -4.1072 C.3     
  23 C23            7.4352     0.1036    -2.8818 C.3     
  24 C24            6.1692    -0.0173    -6.5162 C.3     
  25 C25            9.4314    -0.8093     1.1448 C.3     
  26 O26            8.8570     0.4864     1.3265 O.3     
  27 C27            9.8163     1.5436     1.3917 C.3     
  28 C28            7.4614    -1.7585     2.3533 C.3     
  29 O29            6.9934    -0.4172     2.5076 O.3     
  30 C30            6.1787    -0.2153     3.6642 C.3     
  31 C31            9.1037     2.8575     1.5836 C.2     
  32 C32            5.7436     1.2261     3.7267 C.2     
  33 C33            4.4975     1.5228     4.0015 C.2     
  34 C34            9.5456     3.7196     2.4654 C.2     
  35 C35           -0.5893     0.3507     0.8260 C.3     
  36 F36           -1.9250     0.7336     0.6634 F       
  37 F37           -0.5275    -1.0181     1.1084 F       
  38 F38           -0.0231     1.0710     1.8833 F       
  39 C39            5.5343    -3.6855     0.0862 C.2     
  40 O40            6.7066    -4.0014     0.0378 O.2     
  41 O41            4.5793    -4.6362     0.0742 O.3     
  42 H42           -1.5183     1.4402    -1.4930 H       
  43 H43           -0.1946     1.8788    -3.5511 H       
  44 H44            2.1995     1.3148    -3.5889 H       
  45 H45            4.1718     1.4629     0.3436 H       
  46 H46            6.5316     0.8399     0.0687 H       
  47 H47            3.0548    -2.6596     0.3903 H       
  48 H48            8.7589    -2.8525     1.0264 H       
  49 H49            6.1268    -1.5096    -2.3106 H       
  50 H50            8.6424    -2.1019    -3.9348 H       
  51 H51            7.4061    -3.2930    -3.4645 H       
  52 H52            7.0369    -2.4953    -5.7831 H       
  53 H53            5.6940    -2.0116    -4.7196 H       
  54 H54            8.0600    -0.2530    -5.5111 H       
  55 H55            6.7807     1.5304    -4.3572 H       
  56 H56            5.5444     0.3393    -3.8869 H       
  57 H57            7.1499     0.7327    -2.0386 H       
  58 H58            8.4928     0.2490    -3.1021 H       
  59 H59            5.1117    -0.1627    -6.2959 H       
  60 H60            6.3479     1.0285    -6.7662 H       
  61 H61            6.4545    -0.6464    -7.3594 H       
  62 H62           10.0984    -1.0312     1.9779 H       
  63 H63            9.9957    -0.8291     0.2124 H       
  64 H64           10.4913     1.3705     2.2299 H       
  65 H65           10.3886     1.5726     0.4645 H       
  66 H66            6.6095    -2.4331     2.2684 H       
  67 H67            8.0600    -2.0366     3.2208 H       
  68 H68            5.3002    -0.8579     3.6065 H       
  69 H69            6.7507    -0.4613     4.5589 H       
  70 H70            8.2287     3.0883     0.9941 H       
  71 H71            6.4589     2.0145     3.5449 H       
  72 H72            3.7822     0.7344     4.1833 H       
  73 H73            4.1857     2.5559     4.0463 H       
  74 H74           10.4206     3.4888     3.0548 H       
  75 H75            9.0349     4.6613     2.6028 H       
  76 H76            4.8755    -5.5554     0.0262 H       
@<TRIPOS>BOND
   1    1    2 ar
   2    1    6 ar
   3    1   42 1
   4    2    3 ar
   5    2   43 1
   6    3    4 ar
   7    3   44 1
   8    4    5 ar
   9    5    6 ar
  10    5    7 1
  11    6   35 1
  12    7    8 1
  13    8    9 ar
  14    8   13 ar
  15    9   10 ar
  16    9   45 1
  17   10   11 ar
  18   10   46 1
  19   11   12 ar
  20   11   14 1
  21   12   13 ar
  22   12   39 1
  23   13   47 1
  24   14   15 am
  25   14   16 1
  26   15   17 2
  27   15   18 1
  28   16   25 1
  29   16   28 1
  30   16   48 1
  31   18   19 1
  32   18   23 1
  33   18   49 1
  34   19   20 1
  35   19   50 1
  36   19   51 1
  37   20   21 1
  38   20   52 1
  39   20   53 1
  40   21   22 1
  41   21   24 1
  42   21   54 1
  43   22   23 1
  44   22   55 1
  45   22   56 1
  46   23   57 1
  47   23   58 1
  48   24   59 1
  49   24   60 1
  50   24   61 1
  51   25   26 1
  52   25   62 1
  53   25   63 1
  54   26   27 1
  55   27   31 1
  56   27   64 1
  57   27   65 1
  58   28   29 1
  59   28   66 1
  60   28   67 1
  61   29   30 1
  62   30   32 1
  63   30   68 1
  64   30   69 1
  65   31   34 2
  66   31   70 1
  67   32   33 2
  68   32   71 1
  69   33   72 1
  70   33   73 1
  71   34   74 1
  72   34   75 1
  73   35   36 1
  74   35   37 1
  75   35   38 1
  76   39   40 2
  77   39   41 1
  78   41   76 1

#	End of record

