#	Name: ASD03320056
#	Creating user name:	WinNT
#	Creation time:	15. 06. 2019 20:36

#	Modifying user name:	WinNT
#	Modification time:	15. 06. 2019 20:36

#	Program:	/corina/corina34_cracker 3.40 0067  02.08.2006

@<TRIPOS>MOLECULE
ASD03320056
  49   52    0    0    0
SMALL
NO_CHARGES


@<TRIPOS>ATOM
   1 C1            -0.0181     1.4709     0.0148 C.2     
   2 C2             0.0015    -0.0045     0.0118 C.ar    
   3 C3             1.2189    -0.6976     0.0013 C.ar    
   4 C4             1.1847    -2.0895    -0.0007 C.ar    
   5 C5            -0.0614    -2.7401     0.0078 C.ar    
   6 N6            -1.1884    -2.0439     0.0176 N.ar    
   7 C7            -1.1935    -0.7275     0.0251 C.ar    
   8 O8             1.0268     2.0928     0.0082 O.2     
   9 N9            -1.1942     2.1292     0.0193 N.am    
  10 C10           -1.2149     3.5249     0.1327 C.ar    
  11 C11           -2.1832     4.2618    -0.5363 C.ar    
  12 C12           -2.2033     5.6379    -0.4236 C.ar    
  13 C13           -1.2565     6.2842     0.3576 C.ar    
  14 C14           -0.2886     5.5487     1.0258 C.ar    
  15 C15           -0.2707     4.1721     0.9187 C.ar    
  16 O16           -1.2769     7.6393     0.4681 O.3     
  17 C17           -0.2723     8.2385     1.2889 C.3     
  18 F18            0.9931     7.9216     0.7834 F       
  19 F19           -0.4392     9.6275     1.2910 F       
  20 F20           -0.3874     7.7530     2.5959 F       
  21 N21            2.6865    -4.0138     0.6894 N.pl3   
  22 N22            3.9918    -4.4245     0.3905 N.2     
  23 C23            4.5133    -3.5708    -0.4535 C.2     
  24 C24            3.5676    -2.5828    -0.7284 C.2     
  25 C25            2.4400    -2.8715    -0.0121 C.2     
  26 N26           -0.1114    -4.1219     0.0055 N.3     
  27 C27           -1.5060    -4.6003     0.0156 C.3     
  28 C28           -1.6860    -5.5108    -1.2173 C.3     
  29 C29           -0.2342    -5.9518    -1.5409 C.3     
  30 C30            0.5673    -4.6746    -1.1860 C.3     
  31 O31           -2.4979    -6.6419    -0.8959 O.3     
  32 H32            2.1591    -0.1663    -0.0055 H       
  33 H33           -2.1353    -0.1990     0.0374 H       
  34 H34           -2.0262     1.6363    -0.0560 H       
  35 H35           -2.9202     3.7589    -1.1448 H       
  36 H36           -2.9562     6.2113    -0.9441 H       
  37 H37            0.4485     6.0525     1.6336 H       
  38 H38            0.4800     3.5992     1.4428 H       
  39 H39            2.0675    -4.4639     1.2854 H       
  40 H40            5.5095    -3.6223    -0.8675 H       
  41 H41            3.7026    -1.7395    -1.3895 H       
  42 H42           -1.6969    -5.1676     0.9265 H       
  43 H43           -2.1891    -3.7531    -0.0463 H       
  44 H44           -2.1137    -4.9521    -2.0499 H       
  45 H45            0.0684    -6.7898    -0.9130 H       
  46 H46           -0.1274    -6.1988    -2.5972 H       
  47 H47            0.5290    -3.9615    -2.0095 H       
  48 H48            1.6008    -4.9284    -0.9504 H       
  49 H49           -2.6418    -7.2461    -1.6371 H       
@<TRIPOS>BOND
   1    1    2 1
   2    1    8 2
   3    1    9 am
   4    2    3 ar
   5    2    7 ar
   6    3    4 ar
   7    3   32 1
   8    4    5 ar
   9    4   25 1
  10    5    6 ar
  11    5   26 1
  12    6    7 ar
  13    7   33 1
  14    9   10 1
  15    9   34 1
  16   10   11 ar
  17   10   15 ar
  18   11   12 ar
  19   11   35 1
  20   12   13 ar
  21   12   36 1
  22   13   14 ar
  23   13   16 1
  24   14   15 ar
  25   14   37 1
  26   15   38 1
  27   16   17 1
  28   17   18 1
  29   17   19 1
  30   17   20 1
  31   21   22 1
  32   21   25 1
  33   21   39 1
  34   22   23 2
  35   23   24 1
  36   23   40 1
  37   24   25 2
  38   24   41 1
  39   26   27 1
  40   26   30 1
  41   27   28 1
  42   27   42 1
  43   27   43 1
  44   28   29 1
  45   28   31 1
  46   28   44 1
  47   29   30 1
  48   29   45 1
  49   29   46 1
  50   30   47 1
  51   30   48 1
  52   31   49 1

#	End of record

