#	Name: ASD01028377
#	Creating user name:	WinNT
#	Creation time:	15. 06. 2019 18:57

#	Modifying user name:	WinNT
#	Modification time:	15. 06. 2019 18:57

#	Program:	/corina/corina34_cracker 3.40 0067  02.08.2006

@<TRIPOS>MOLECULE
ASD01028377
  49   53    0    0    0
SMALL
NO_CHARGES


@<TRIPOS>ATOM
   1 C1            -0.0171     1.4118     0.0098 C.ar    
   2 C2             0.0021    -0.0041     0.0020 C.ar    
   3 C3             1.2105     2.1116     0.0018 C.ar    
   4 C4             2.3793     1.3714    -0.0133 C.ar    
   5 C5             2.3160    -0.0162    -0.0202 C.ar    
   6 N6             1.1704    -0.6565    -0.0123 N.ar    
   7 O7             1.2420     3.4670     0.0084 O.3     
   8 C8             2.5299     4.0861    -0.0005 C.3     
   9 C9             2.3673     5.5842     0.0086 C.2     
  10 N10            2.2915     6.3711     1.1038 N.pl3   
  11 C11            2.1483     7.6563     0.6385 C.2     
  12 N12            2.1444     7.5869    -0.6828 N.2     
  13 N13            2.2796     6.3587    -1.0442 N.2     
  14 N14            2.3296     6.1240     2.4776 N.2     
  15 C15            2.2293     7.1150     3.3364 C.2     
  16 C16            2.0814     8.4455     2.8894 C.2     
  17 C17            2.0418     8.7168     1.5585 C.2     
  18 C18            2.2717     6.8310     4.7912 C.2     
  19 C19           -1.2152    -0.7043     0.0100 C.ar    
  20 C20           -2.4012    -0.0065     0.0251 C.ar    
  21 C21           -2.4085     1.3917     0.0322 C.ar    
  22 C22           -1.2431     2.0938     0.0309 C.ar    
  23 O23           -3.5786    -0.6840     0.0328 O.3     
  24 C24           -4.7758     0.0961     0.0485 C.3     
  25 C25            2.4189     5.5039     5.2511 C.2     
  26 C26            2.4557     5.2667     6.5911 C.2     
  27 C27            2.3467     6.3454     7.4871 C.2     
  28 N28            2.2067     7.6013     7.0238 N.am    
  29 C29            2.1742     7.8522     5.6926 C.2     
  30 O30            2.3788     6.1417     8.6898 O.2     
  31 C31            2.0936     8.7127     7.9715 C.3     
  32 H32            3.3370     1.8705    -0.0202 H       
  33 H33            3.2348    -0.5838    -0.0321 H       
  34 H34            3.0883     3.7758     0.8827 H       
  35 H35            3.0716     3.7849    -0.8972 H       
  36 H36            2.0002     9.2493     3.6062 H       
  37 H37            1.9290     9.7330     1.2107 H       
  38 H38           -1.2205    -1.7843     0.0039 H       
  39 H39           -3.3501     1.9205     0.0433 H       
  40 H40           -1.2617     3.1736     0.0364 H       
  41 H41           -4.7911     0.7202     0.9420 H       
  42 H42           -4.8082     0.7297    -0.8378 H       
  43 H43           -5.6412    -0.5666     0.0533 H       
  44 H44            2.5008     4.6876     4.5487 H       
  45 H45            2.5673     4.2589     6.9630 H       
  46 H46            2.0611     8.8673     5.3415 H       
  47 H47            2.1435     8.3281     8.9902 H       
  48 H48            2.9114     9.4145     7.8077 H       
  49 H49            1.1419     9.2225     7.8218 H       
@<TRIPOS>BOND
   1    1    2 ar
   2    1    3 ar
   3    1   22 ar
   4    2   19 ar
   5    2    6 ar
   6    3    4 ar
   7    3    7 1
   8    4    5 ar
   9    4   32 1
  10    5    6 ar
  11    5   33 1
  12    7    8 1
  13    8    9 1
  14    8   34 1
  15    8   35 1
  16    9   10 1
  17    9   13 2
  18   10   11 1
  19   10   14 1
  20   11   12 2
  21   11   17 1
  22   12   13 1
  23   14   15 2
  24   15   16 1
  25   15   18 1
  26   16   17 2
  27   16   36 1
  28   17   37 1
  29   18   25 1
  30   18   29 2
  31   19   20 ar
  32   19   38 1
  33   20   21 ar
  34   20   23 1
  35   21   22 ar
  36   21   39 1
  37   22   40 1
  38   23   24 1
  39   24   41 1
  40   24   42 1
  41   24   43 1
  42   25   26 2
  43   25   44 1
  44   26   27 1
  45   26   45 1
  46   27   28 am
  47   27   30 2
  48   28   29 1
  49   28   31 1
  50   29   46 1
  51   31   47 1
  52   31   48 1
  53   31   49 1

#	End of record

