#	Name: ASD01028700
#	Creating user name:	WinNT
#	Creation time:	15. 06. 2019 18:58

#	Modifying user name:	WinNT
#	Modification time:	15. 06. 2019 18:58

#	Program:	/corina/corina34_cracker 3.40 0067  02.08.2006

@<TRIPOS>MOLECULE
ASD01028700
  40   44    0    0    0
SMALL
NO_CHARGES


@<TRIPOS>ATOM
   1 C1            -0.0164     1.3615     0.0095 C.ar    
   2 C2             0.0021    -0.0041     0.0020 C.ar    
   3 C3             1.2188    -0.6830    -0.0133 C.ar    
   4 N4             2.3642    -0.0457    -0.0208 N.ar    
   5 C5             2.4164     1.2901    -0.0140 C.ar    
   6 C6             3.6475     1.9682    -0.0216 C.ar    
   7 C7             3.6690     3.3291    -0.0140 C.ar    
   8 C8             2.4873     4.0667     0.0010 C.ar    
   9 C9             1.2757     3.4451     0.0092 C.ar    
  10 C10            1.2156     2.0425     0.0014 C.ar    
  11 C11            4.9926     4.0497    -0.0217 C.3     
  12 C12            6.5842     4.8828     3.2476 C.ar    
  13 C13            6.6755     4.9463     1.8405 C.ar    
  14 C14            7.7723     5.5497     1.2419 C.ar    
  15 C15            8.7596     6.0794     2.0779 C.ar    
  16 C16            8.6000     5.9790     3.4647 C.ar    
  17 N17            7.5456     5.3987     3.9954 N.ar    
  18 O18            5.4211     4.2536     3.4950 O.3     
  19 N19            4.8274     3.9439     2.4888 N.2     
  20 C20            5.4463     4.2818     1.3965 C.2     
  21 C21           10.9948     7.2955     2.1962 C.2     
  22 C22           11.8540     7.7723     1.1853 C.2     
  23 N23           11.2911     7.4761     0.0482 N.2     
  24 O24           10.2384     6.9018     0.2017 O.3     
  25 C25            9.9545     6.7354     1.5057 C.2     
  26 F26            5.9424     3.2732    -0.6940 F       
  27 F27            4.8502     5.2796    -0.6730 F       
  28 C28           13.1672     8.4852     1.3815 C.3     
  29 H29           -0.9504     1.9039     0.0169 H       
  30 H30           -0.9255    -0.5572     0.0083 H       
  31 H31            1.2180    -1.7630    -0.0187 H       
  32 H32            4.5729     1.4116    -0.0329 H       
  33 H33            2.5326     5.1458     0.0067 H       
  34 H34            0.3664     4.0277     0.0216 H       
  35 H35            7.8604     5.6078     0.1670 H       
  36 H36            9.3606     6.3866     4.1142 H       
  37 H37           11.1288     7.3543     3.2662 H       
  38 H38           13.9750     7.7545     1.4207 H       
  39 H39           13.3366     9.1699     0.5506 H       
  40 H40           13.1397     9.0468     2.3153 H       
@<TRIPOS>BOND
   1    1    2 ar
   2    1   10 ar
   3    1   29 1
   4    2    3 ar
   5    2   30 1
   6    3    4 ar
   7    3   31 1
   8    4    5 ar
   9    5    6 ar
  10    5   10 ar
  11    6    7 ar
  12    6   32 1
  13    7    8 ar
  14    7   11 1
  15    8    9 ar
  16    8   33 1
  17    9   10 ar
  18    9   34 1
  19   11   26 1
  20   11   27 1
  21   11   20 1
  22   12   13 ar
  23   12   17 ar
  24   12   18 1
  25   13   14 ar
  26   13   20 1
  27   14   15 ar
  28   14   35 1
  29   15   16 ar
  30   15   25 1
  31   16   17 ar
  32   16   36 1
  33   18   19 1
  34   19   20 2
  35   21   22 1
  36   21   25 2
  37   21   37 1
  38   22   23 2
  39   22   28 1
  40   23   24 1
  41   24   25 1
  42   28   38 1
  43   28   39 1
  44   28   40 1

#	End of record

