#	Name: ASD01870619
#	Creating user name:	WinNT
#	Creation time:	15. 06. 2019 19:39

#	Modifying user name:	WinNT
#	Modification time:	15. 06. 2019 19:39

#	Program:	/corina/corina34_cracker 3.40 0067  02.08.2006

@<TRIPOS>MOLECULE
ASD01870619
  46   50    0    0    0
SMALL
NO_CHARGES


@<TRIPOS>ATOM
   1 C1            -0.0671     1.4219    -0.0458 C.ar    
   2 C2            -0.0579     0.0357    -0.0536 C.ar    
   3 C3             1.1381    -0.6571    -0.0570 C.ar    
   4 C4             2.3452     0.0246    -0.0527 C.ar    
   5 C5             2.3516     1.4101    -0.0454 C.ar    
   6 C6             1.1317     2.1167    -0.0419 C.ar    
   7 C7             3.4141     2.4376    -0.0389 C.2     
   8 N8             2.8358     3.6522    -0.0326 N.am    
   9 C9             1.4945     3.5496    -0.0334 C.2     
  10 C10            3.5379     4.8642    -0.0253 C.ar    
  11 C11            3.8920     5.4703     1.1979 C.ar    
  12 C12            4.6018     6.6959     1.1884 C.ar    
  13 C13            4.9431     7.2904    -0.0447 C.ar    
  14 C14            4.5826     6.6730    -1.2230 C.ar    
  15 C15            3.8905     5.4666    -1.2130 C.ar    
  16 O16            0.7124     4.4788    -0.0280 O.2     
  17 O17            4.6092     2.2215    -0.0388 O.2     
  18 N18            5.6427     8.4993    -0.0713 N.am    
  19 C19            6.5376     8.7386    -1.0502 C.2     
  20 C20            7.1817    10.0520    -1.1496 C.2     
  21 O21            6.8112     7.8644    -1.8517 O.2     
  22 C22            8.1012    10.4260    -2.0875 C.2     
  23 C23            8.4453    11.7575    -1.8068 C.2     
  24 C24            7.7300    12.1333    -0.7237 C.2     
  25 O25            6.9654    11.1048    -0.3341 O.3     
  26 C26            8.6420     9.5739    -3.2067 C.3     
  27 C27            3.5537     4.8798     2.4264 C.ar    
  28 C28            3.9111     5.4911     3.5892 C.ar    
  29 C29            4.6089     6.6971     3.5797 C.ar    
  30 C30            4.9537     7.2975     2.4074 C.ar    
  31 H31           -1.0046     1.9581    -0.0473 H       
  32 H32           -0.9918    -0.5066    -0.0566 H       
  33 H33            1.1322    -1.7371    -0.0626 H       
  34 H34            3.2767    -0.5220    -0.0547 H       
  35 H35            4.8444     7.1297    -2.1660 H       
  36 H36            3.6224     4.9980    -2.1484 H       
  37 H37            5.4844     9.1664     0.6148 H       
  38 H38            9.1497    12.3670    -2.3534 H       
  39 H39            7.7654    13.1044    -0.2526 H       
  40 H40            8.0146     9.6933    -4.0900 H       
  41 H41            9.6606     9.8842    -3.4399 H       
  42 H42            8.6421     8.5281    -2.8998 H       
  43 H43            3.0123     3.9456     2.4486 H       
  44 H44            3.6496     5.0349     4.5325 H       
  45 H45            4.8802     7.1624     4.5158 H       
  46 H46            5.4952     8.2319     2.4149 H       
@<TRIPOS>BOND
   1    1    2 ar
   2    1    6 ar
   3    1   31 1
   4    2    3 ar
   5    2   32 1
   6    3    4 ar
   7    3   33 1
   8    4    5 ar
   9    4   34 1
  10    5    7 1
  11    5    6 ar
  12    6    9 1
  13    7    8 am
  14    7   17 2
  15    8    9 am
  16    8   10 1
  17    9   16 2
  18   10   11 ar
  19   10   15 ar
  20   11   27 ar
  21   11   12 ar
  22   12   13 ar
  23   12   30 ar
  24   13   14 ar
  25   13   18 1
  26   14   15 ar
  27   14   35 1
  28   15   36 1
  29   18   19 am
  30   18   37 1
  31   19   20 1
  32   19   21 2
  33   20   22 2
  34   20   25 1
  35   22   23 1
  36   22   26 1
  37   23   24 2
  38   23   38 1
  39   24   25 1
  40   24   39 1
  41   26   40 1
  42   26   41 1
  43   26   42 1
  44   27   28 ar
  45   27   43 1
  46   28   29 ar
  47   28   44 1
  48   29   30 ar
  49   29   45 1
  50   30   46 1

#	End of record

