#	Name: ASD00069486
#	Creating user name:	WinNT
#	Creation time:	15. 06. 2019 18:29

#	Modifying user name:	WinNT
#	Modification time:	15. 06. 2019 18:29

#	Program:	/corina/corina34_cracker 3.40 0067  02.08.2006

@<TRIPOS>MOLECULE
ASD00069486
  38   40    0    0    0
SMALL
NO_CHARGES


@<TRIPOS>ATOM
   1 O1            -0.0174     1.4305     0.0099 O.3     
   2 B2             0.0021    -0.0041     0.0020 Du      
   3 O3             1.0670    -0.3534    -0.8937 O.3     
   4 C4            -0.9361    -0.9782     0.7993 C.ar    
   5 C5            -0.7933    -2.3602     0.6871 C.ar    
   6 C6            -1.9323    -0.4826     1.6444 C.ar    
   7 C7            -2.7379    -1.3714     2.3289 C.ar    
   8 N8            -2.5781    -2.6731     2.1951 N.ar    
   9 C9            -1.6453    -3.1859     1.4107 C.ar    
  10 N10           -1.5180    -4.5743     1.3042 N.pl3   
  11 C11            2.1089     0.6053    -0.6139 C.3     
  12 C12            1.3736     1.8147    -0.0013 C.3     
  13 C13            1.5763     3.0578    -0.8700 C.3     
  14 C14            1.8670     2.0726     1.4238 C.3     
  15 C15            3.1105     0.0270     0.3877 C.3     
  16 C16            2.8198     1.0122    -1.9062 C.3     
  17 C17           -2.2791    -5.4993     1.9448 C.2     
  18 C18           -1.8368    -6.7223     1.5722 C.2     
  19 C19           -0.7750    -6.5436     0.6782 C.2     
  20 N20           -0.5868    -5.2596     0.5131 N.2     
  21 H21           -0.0326    -2.7827     0.0474 H       
  22 H22           -2.0704     0.5822     1.7611 H       
  23 H23           -3.5097    -0.9945     2.9837 H       
  24 H24            1.1819     2.8713    -1.8689 H       
  25 H25            1.0512     3.9024    -0.4239 H       
  26 H26            2.6403     3.2853    -0.9361 H       
  27 H27            2.9371     2.2793     1.4061 H       
  28 H28            1.3383     2.9292     1.8419 H       
  29 H29            1.6771     1.1929     2.0388 H       
  30 H30            3.5790    -0.8603    -0.0381 H       
  31 H31            3.8754     0.7717     0.6077 H       
  32 H32            2.5906    -0.2424     1.3071 H       
  33 H33            2.0954     1.4363    -2.6014 H       
  34 H34            3.5854     1.7548    -1.6813 H       
  35 H35            3.2852     0.1354    -2.3564 H       
  36 H36           -3.0902    -5.2953     2.6281 H       
  37 H37           -2.2332    -7.6698     1.9062 H       
  38 H38           -0.2097    -7.3315     0.2028 H       
@<TRIPOS>BOND
   1    1    2 1
   2    1   12 1
   3    2    3 1
   4    2    4 1
   5    3   11 1
   6    4    5 ar
   7    4    6 ar
   8    5    9 ar
   9    5   21 1
  10    6    7 ar
  11    6   22 1
  12    7    8 ar
  13    7   23 1
  14    8    9 ar
  15    9   10 1
  16   10   17 1
  17   10   20 1
  18   11   12 1
  19   11   15 1
  20   11   16 1
  21   12   13 1
  22   12   14 1
  23   13   24 1
  24   13   25 1
  25   13   26 1
  26   14   27 1
  27   14   28 1
  28   14   29 1
  29   15   30 1
  30   15   31 1
  31   15   32 1
  32   16   33 1
  33   16   34 1
  34   16   35 1
  35   17   18 2
  36   17   36 1
  37   18   19 1
  38   18   37 1
  39   19   20 2
  40   19   38 1

#	End of record

