#	Name: ASD03490031
#	Creating user name:	WinNT
#	Creation time:	15. 06. 2019 20:42

#	Modifying user name:	WinNT
#	Modification time:	15. 06. 2019 20:42

#	Program:	/corina/corina34_cracker 3.40 0067  02.08.2006

@<TRIPOS>MOLECULE
ASD03490031
  55   55    0    0    0
SMALL
NO_CHARGES


@<TRIPOS>ATOM
   1 C1            -2.3958    -3.0222    -0.2448 C.3     
   2 C2            -1.1590    -2.6154     0.5140 C.2     
   3 O3            -0.6126    -1.4067     0.3084 O.3     
   4 C4             0.5131    -1.0405     1.1492 C.3     
   5 O5             1.6473    -1.8916     0.8371 O.3     
   6 C6             2.1340    -1.8247    -0.4121 C.2     
   7 C7             3.3274    -2.6585    -0.8015 C.3     
   8 O8            -0.6592    -3.3772     1.3076 O.2     
   9 C9             0.8865     0.4210     0.8934 C.3     
  10 O10            1.6152    -1.0959    -1.2243 O.2     
  11 O11            3.7246    -2.3289    -2.1340 O.3     
  12 C12            4.4839    -2.3753     0.1608 C.3     
  13 O13            2.9828    -4.0438    -0.7357 O.3     
  14 C14            4.0413    -4.9268    -1.1124 C.3     
  15 C15            5.2264    -4.7350    -0.1625 C.3     
  16 C16            5.6724    -3.2700    -0.2044 C.3     
  17 C17            3.5516    -6.3741    -1.0315 C.3     
  18 C18            2.4565    -6.6011    -2.0757 C.3     
  19 C19            2.0544    -8.0773    -2.0803 C.3     
  20 O20            1.1170    -8.3123    -3.1330 O.3     
  21 O21            1.3186    -5.7984    -1.7548 O.3     
  22 C22            4.8043    -5.1005     1.2620 C.3     
  23 O23            5.8675    -4.7960     2.1668 O.3     
  24 O24            6.1281    -2.9464    -1.5196 O.3     
  25 N25            4.5008    -6.5322     1.3292 N.am    
  26 O26            2.7551    -6.1692     2.6494 O.2     
  27 C27            3.4497    -6.9650     2.0533 C.2     
  28 C28            3.1375    -8.4376     2.1225 C.3     
  29 H29           -2.1069    -3.5127    -1.1743 H       
  30 H30           -2.9842    -3.7107     0.3617 H       
  31 H31           -2.9910    -2.1374    -0.4707 H       
  32 H32            0.2407    -1.1679     2.1969 H       
  33 H33            1.7316     0.6959     1.5245 H       
  34 H34            1.1590     0.5483    -0.1543 H       
  35 H35            0.0351     1.0599     1.1276 H       
  36 H36            3.0393    -2.4839    -2.7984 H       
  37 H37            4.7774    -1.3287     0.0796 H       
  38 H38            4.1683    -2.5879     1.1822 H       
  39 H39            4.3538    -4.7052    -2.1329 H       
  40 H40            6.0510    -5.3758    -0.4748 H       
  41 H41            6.4797    -3.1139     0.5112 H       
  42 H42            4.3840    -7.0507    -1.2250 H       
  43 H43            3.1504    -6.5668    -0.0365 H       
  44 H44            2.8309    -6.3234    -3.0610 H       
  45 H45            2.9391    -8.6944    -2.2371 H       
  46 H46            1.5982    -8.3326    -1.1239 H       
  47 H47            0.8176    -9.2297    -3.1955 H       
  48 H48            0.9324    -5.9916    -0.8896 H       
  49 H49            3.9183    -4.5280     1.5366 H       
  50 H50            6.7095    -5.2136     1.9392 H       
  51 H51            6.4264    -2.0319    -1.6187 H       
  52 H52            5.0563    -7.1686     0.8525 H       
  53 H53            3.8648    -8.9915     1.5288 H       
  54 H54            3.1855    -8.7709     3.1592 H       
  55 H55            2.1366    -8.6157     1.7295 H       
@<TRIPOS>BOND
   1    1    2 1
   2    1   29 1
   3    1   30 1
   4    1   31 1
   5    2    3 1
   6    2    8 2
   7    3    4 1
   8    4    5 1
   9    4    9 1
  10    4   32 1
  11    5    6 1
  12    6    7 1
  13    6   10 2
  14    7   11 1
  15    7   12 1
  16    7   13 1
  17    9   33 1
  18    9   34 1
  19    9   35 1
  20   11   36 1
  21   12   16 1
  22   12   37 1
  23   12   38 1
  24   13   14 1
  25   14   15 1
  26   14   17 1
  27   14   39 1
  28   15   16 1
  29   15   22 1
  30   15   40 1
  31   16   24 1
  32   16   41 1
  33   17   18 1
  34   17   42 1
  35   17   43 1
  36   18   19 1
  37   18   21 1
  38   18   44 1
  39   19   20 1
  40   19   45 1
  41   19   46 1
  42   20   47 1
  43   21   48 1
  44   22   23 1
  45   22   25 1
  46   22   49 1
  47   23   50 1
  48   24   51 1
  49   25   27 am
  50   25   52 1
  51   26   27 2
  52   27   28 1
  53   28   53 1
  54   28   54 1
  55   28   55 1

#	End of record

