#	Name: ASD01140545
#	Creating user name:	WinNT
#	Creation time:	15. 06. 2019 19:01

#	Modifying user name:	WinNT
#	Modification time:	15. 06. 2019 19:01

#	Program:	/corina/corina34_cracker 3.40 0067  02.08.2006

@<TRIPOS>MOLECULE
ASD01140545
  39   41    0    0    0
SMALL
NO_CHARGES


@<TRIPOS>ATOM
   1 O1             0.4535     0.3630    -1.0582 O.3     
   2 O2             0.1132    -0.1973     2.4003 O.3     
   3 O3            -2.5308    -4.1532    -0.2158 O.3     
   4 O4            -4.8573    -0.0210     0.2554 O.3     
   5 O5             4.2753     2.3133     0.8250 O.3     
   6 O6            -4.8900    -2.7617     0.0310 O.3     
   7 O7             3.5441     2.3995    -3.8586 O.3     
   8 C8             0.0021    -0.0041     0.0020 C.ar    
   9 C9            -1.2865    -0.7305     0.0104 C.ar    
  10 C10            2.3010     1.2988    -0.0773 C.ar    
  11 C11            1.5009     0.9678    -1.2001 C.ar    
  12 C12            0.6517     0.2307     1.2278 C.ar    
  13 C13            1.8508     0.9087     1.2018 C.ar    
  14 C14           -2.4852    -0.0258     0.1309 C.ar    
  15 C15           -1.3056    -2.1211    -0.1080 C.ar    
  16 C16            3.5099     1.9963    -0.2505 C.ar    
  17 C17            1.9390     1.3498    -2.4769 C.ar    
  18 C18           -2.5116    -2.7983    -0.1004 C.ar    
  19 C19           -3.6890    -0.7071     0.1380 C.ar    
  20 C20           -3.7054    -2.0940     0.0247 C.ar    
  21 C21            3.1273     2.0334    -2.6190 C.ar    
  22 C22            3.9090     2.3549    -1.5082 C.ar    
  23 C23           -1.2687    -4.8116    -0.3411 C.3     
  24 C24           -4.7664     1.4007     0.3672 C.3     
  25 H25            2.4089     1.1269     2.1003 H       
  26 H26           -2.4729     1.0505     0.2189 H       
  27 H27           -0.3794    -2.6679    -0.2058 H       
  28 H28            1.3465     1.1083    -3.3469 H       
  29 H29            4.8370     2.8906    -1.6433 H       
  30 H30            0.3887    -1.0877     2.6578 H       
  31 H31            4.9280     1.6383     1.0560 H       
  32 H32           -5.1852    -3.0306     0.9117 H       
  33 H33            3.2334     3.2722    -4.1363 H       
  34 H34           -1.4266    -5.8869    -0.4249 H       
  35 H35           -0.7567    -4.4490    -1.2325 H       
  36 H36           -0.6602    -4.6011     0.5383 H       
  37 H37           -5.7674     1.8231     0.4542 H       
  38 H38           -4.1848     1.6591     1.2522 H       
  39 H39           -4.2775     1.8044    -0.5194 H       
@<TRIPOS>BOND
   1    1    8 ar
   2    1   11 ar
   3    2   12 1
   4    2   30 1
   5    3   18 1
   6    3   23 1
   7    4   19 1
   8    4   24 1
   9    5   16 1
  10    5   31 1
  11    6   20 1
  12    6   32 1
  13    7   21 1
  14    7   33 1
  15    8    9 1
  16    8   12 ar
  17    9   14 ar
  18    9   15 ar
  19   10   11 ar
  20   10   13 ar
  21   10   16 ar
  22   11   17 ar
  23   12   13 ar
  24   13   25 1
  25   14   19 ar
  26   14   26 1
  27   15   18 ar
  28   15   27 1
  29   16   22 ar
  30   17   21 ar
  31   17   28 1
  32   18   20 ar
  33   19   20 ar
  34   21   22 ar
  35   22   29 1
  36   23   34 1
  37   23   35 1
  38   23   36 1
  39   24   37 1
  40   24   38 1
  41   24   39 1

#	End of record

