#	Name: ASD01411103
#	Creating user name:	WinNT
#	Creation time:	15. 06. 2019 19:19

#	Modifying user name:	WinNT
#	Modification time:	15. 06. 2019 19:19

#	Program:	/corina/corina34_cracker 3.40 0067  02.08.2006

@<TRIPOS>MOLECULE
ASD01411103
  40   42    0    0    0
SMALL
NO_CHARGES


@<TRIPOS>ATOM
   1 C1            -0.0187     1.5313     0.0105 C.3     
   2 C2             0.0021    -0.0041     0.0020 C.3     
   3 O3             1.3232     2.0259     0.0003 O.3     
   4 C4             0.9855    -0.4586     1.0512 C.2     
   5 C5             2.0382     1.8201     1.2251 C.3     
   6 C6             1.9085     0.3646     1.6079 C.2     
   7 C7             1.1555    -1.7566     1.6516 C.ar    
   8 C8             1.4402     2.6986     2.3258 C.3     
   9 N9             2.6513    -0.3264     2.5211 N.pl3   
  10 C10            0.4943    -2.9914     1.4738 C.ar    
  11 C11            2.2231    -1.6236     2.5773 C.ar    
  12 C12            0.9477    -4.0616     2.2540 C.ar    
  13 C13            2.6471    -2.7110     3.3363 C.ar    
  14 C14            1.9872    -3.9165     3.1502 C.ar    
  15 C15            1.5459     4.1695     1.9182 C.3     
  16 C16            0.9479     5.0480     3.0189 C.3     
  17 C17            3.4914     2.1681     1.0302 C.2     
  18 O18            4.3460     1.5393     1.6083 O.2     
  19 O19            3.8365     3.1766     0.2144 O.3     
  20 C20           -0.5844    -3.1410     0.5440 C.1     
  21 N21           -1.4402    -3.2598    -0.1936 N.1     
  22 C22            3.7793    -2.5830     4.3225 C.3     
  23 H23           -0.5458     1.8924    -0.8726 H       
  24 H24           -0.5288     1.8829     0.9073 H       
  25 H25           -0.9909    -0.3879     0.2361 H       
  26 H26            0.3158    -0.3635    -0.9781 H       
  27 H27            0.3922     2.4362     2.4710 H       
  28 H28            1.9868     2.5390     3.2552 H       
  29 H29            3.3741     0.0463     3.0498 H       
  30 H30            0.4715    -5.0256     2.1523 H       
  31 H31            2.2984    -4.7740     3.7283 H       
  32 H32            2.5938     4.4319     1.7730 H       
  33 H33            0.9993     4.3291     0.9888 H       
  34 H34           -0.1000     4.7856     3.1640 H       
  35 H35            1.4945     4.8884     3.9483 H       
  36 H36            1.0232     6.0959     2.7285 H       
  37 H37            4.7809     3.3624     0.1212 H       
  38 H38            3.3820    -2.2992     5.2971 H       
  39 H39            4.2983    -3.5379     4.4058 H       
  40 H40            4.4766    -1.8193     3.9781 H       
@<TRIPOS>BOND
   1    1    2 1
   2    1    3 1
   3    1   23 1
   4    1   24 1
   5    2    4 1
   6    2   25 1
   7    2   26 1
   8    3    5 1
   9    4    6 2
  10    4    7 1
  11    5    8 1
  12    5   17 1
  13    5    6 1
  14    6    9 1
  15    7   10 ar
  16    7   11 ar
  17    8   15 1
  18    8   27 1
  19    8   28 1
  20    9   11 1
  21    9   29 1
  22   10   12 ar
  23   10   20 1
  24   11   13 ar
  25   12   14 ar
  26   12   30 1
  27   13   14 ar
  28   13   22 1
  29   14   31 1
  30   15   16 1
  31   15   32 1
  32   15   33 1
  33   16   34 1
  34   16   35 1
  35   16   36 1
  36   17   18 2
  37   17   19 1
  38   19   37 1
  39   20   21 3
  40   22   38 1
  41   22   39 1
  42   22   40 1

#	End of record

