#	Name: ASD05303039
#	Creating user name:	WinNT
#	Creation time:	15. 06. 2019 20:58

#	Modifying user name:	WinNT
#	Modification time:	15. 06. 2019 20:58

#	Program:	/corina/corina34_cracker 3.40 0067  02.08.2006

@<TRIPOS>MOLECULE
ASD05303039
  23   25    0    0    0
SMALL
NO_CHARGES


@<TRIPOS>ATOM
   1 C1            -0.0168     1.3903     0.0097 C.ar    
   2 C2             0.0021    -0.0041     0.0020 C.ar    
   3 C3             1.1653    -0.7044    -0.0129 C.ar    
   4 C4             2.3962    -0.0140    -0.0209 C.ar    
   5 C5             2.3731     1.4514    -0.0129 C.ar    
   6 C6             1.1312     2.1168     0.0026 C.ar    
   7 N7             3.5490    -0.6752    -0.0350 N.ar    
   8 C8             4.7152    -0.0378    -0.0423 C.ar    
   9 C9             4.7686     1.4268    -0.0350 C.ar    
  10 C10            3.5783     2.1619    -0.0211 C.ar    
  11 C11            5.9315    -0.7534    -0.0567 C.ar    
  12 C12            7.1090    -0.0773    -0.0635 C.ar    
  13 C13            7.1568     1.3164    -0.0566 C.ar    
  14 C14            6.0240     2.0664    -0.0427 C.ar    
  15 Cl15           3.5962     3.8978    -0.0126 Cl      
  16 H16           -0.9664     1.9048     0.0169 H       
  17 H17           -0.9345    -0.5419     0.0084 H       
  18 H18            1.1487    -1.7842    -0.0182 H       
  19 H19            1.0922     3.1961     0.0084 H       
  20 H20            5.9258    -1.8334    -0.0619 H       
  21 H21            8.0342    -0.6343    -0.0741 H       
  22 H22            8.1168     1.8112    -0.0621 H       
  23 H23            6.0854     3.1447    -0.0380 H       
@<TRIPOS>BOND
   1    1    2 ar
   2    1    6 ar
   3    1   16 1
   4    2    3 ar
   5    2   17 1
   6    3    4 ar
   7    3   18 1
   8    4    5 ar
   9    4    7 ar
  10    5    6 ar
  11    5   10 ar
  12    6   19 1
  13    7    8 ar
  14    8    9 ar
  15    8   11 ar
  16    9   10 ar
  17    9   14 ar
  18   10   15 1
  19   11   12 ar
  20   11   20 1
  21   12   13 ar
  22   12   21 1
  23   13   14 ar
  24   13   22 1
  25   14   23 1

#	End of record

