#	Name: ASD01948116
#	Creating user name:	WinNT
#	Creation time:	15. 06. 2019 20:13

#	Modifying user name:	WinNT
#	Modification time:	15. 06. 2019 20:13

#	Program:	/corina/corina34_cracker 3.40 0067  02.08.2006

@<TRIPOS>MOLECULE
ASD01948116
  47   49    0    0    0
SMALL
NO_CHARGES


@<TRIPOS>ATOM
   1 C1             1.7874     1.4255    -1.0462 C.ar    
   2 C2             1.5951     0.0486    -1.1439 C.ar    
   3 C3             1.7776    -0.5971    -2.3618 C.ar    
   4 C4             2.1492     0.1221    -3.4762 C.ar    
   5 C5             2.3432     1.5029    -3.3831 C.ar    
   6 C6             2.1538     2.1516    -2.1588 C.ar    
   7 N7             1.2193    -0.6831    -0.0178 N.pl3   
   8 C8             3.6330    -2.2713    -0.4436 C.2     
   9 C9             2.3548    -2.8644    -0.2931 C.2     
  10 C10            1.1527    -2.0610    -0.0804 C.2     
  11 C11            6.0323    -2.5215    -0.8020 C.3     
  12 N12            4.6916    -3.0897    -0.6416 N.am    
  13 F13            1.6093     2.0497     0.1387 F       
  14 C14            2.7295     2.2528    -4.5402 C.1     
  15 C15            2.2447    -4.2612    -0.3500 C.2     
  16 N16            1.0198    -4.8499    -0.2064 N.am    
  17 C17           -0.0914    -4.1204    -0.0113 C.2     
  18 C18           -0.0561    -2.7247     0.0571 C.2     
  19 C19            4.5182    -4.4312    -0.6917 C.2     
  20 N20            3.3496    -4.9939    -0.5448 N.2     
  21 O21            3.7732    -1.0618    -0.4011 O.2     
  22 C22            0.9159    -6.3100    -0.2674 C.3     
  23 O23           -1.1622    -4.6928     0.1109 O.2     
  24 C24            6.7036    -2.4039     0.5678 C.3     
  25 C25            8.0520    -1.6969     0.4160 C.3     
  26 O26            6.9089    -3.7095     1.1113 O.3     
  27 O27            8.6257    -1.4830     1.7071 O.3     
  28 C28           -1.3268    -1.9453     0.2782 C.3     
  29 N29            3.0360     2.8477    -5.4582 N.1     
  30 H30            1.6281    -1.6643    -2.4340 H       
  31 H31            2.2909    -0.3809    -4.4214 H       
  32 H32            2.3025     3.2186    -2.0835 H       
  33 H33            1.0047    -0.2242     0.8094 H       
  34 H34            6.6277    -3.1708    -1.4439 H       
  35 H35            5.9562    -1.5332    -1.2554 H       
  36 H36            5.3811    -5.0607    -0.8514 H       
  37 H37            1.0346    -6.7249     0.7335 H       
  38 H38           -0.0610    -6.5885    -0.6626 H       
  39 H39            1.6967    -6.7029    -0.9186 H       
  40 H40            6.0648    -1.8280     1.2373 H       
  41 H41            8.7216    -2.3159    -0.1811 H       
  42 H42            7.9053    -0.7374    -0.0800 H       
  43 H43            7.4697    -4.2786     0.5666 H       
  44 H44            9.4840    -1.0379     1.6873 H       
  45 H45           -2.1773    -2.6271     0.2705 H       
  46 H46           -1.2780    -1.4362     1.2407 H       
  47 H47           -1.4444    -1.2089    -0.5168 H       
@<TRIPOS>BOND
   1    1    2 ar
   2    1   13 1
   3    1    6 ar
   4    2    3 ar
   5    2    7 1
   6    3    4 ar
   7    3   30 1
   8    4    5 ar
   9    4   31 1
  10    5    6 ar
  11    5   14 1
  12    6   32 1
  13    7   10 1
  14    7   33 1
  15    8    9 1
  16    8   21 2
  17    8   12 am
  18    9   10 1
  19    9   15 2
  20   10   18 2
  21   11   12 1
  22   11   24 1
  23   11   34 1
  24   11   35 1
  25   12   19 1
  26   14   29 3
  27   15   16 1
  28   15   20 1
  29   16   17 am
  30   16   22 1
  31   17   18 1
  32   17   23 2
  33   18   28 1
  34   19   20 2
  35   19   36 1
  36   22   37 1
  37   22   38 1
  38   22   39 1
  39   24   25 1
  40   24   26 1
  41   24   40 1
  42   25   27 1
  43   25   41 1
  44   25   42 1
  45   26   43 1
  46   27   44 1
  47   28   45 1
  48   28   46 1
  49   28   47 1

#	End of record

