#	Name: ASD05380006
#	Creating user name:	WinNT
#	Creation time:	15. 06. 2019 20:59

#	Modifying user name:	WinNT
#	Modification time:	15. 06. 2019 20:59

#	Program:	/corina/corina34_cracker 3.40 0067  02.08.2006

@<TRIPOS>MOLECULE
ASD05380006
  35   36    0    0    0
SMALL
NO_CHARGES


@<TRIPOS>ATOM
   1 C1            -0.0170     1.4051     0.0098 C.ar    
   2 C2             0.0021    -0.0041     0.0020 C.ar    
   3 C3             1.2047     2.0820     0.0017 C.ar    
   4 N4             2.3215     1.3723    -0.0127 N.ar    
   5 C5             2.2957     0.0520    -0.0196 C.ar    
   6 N6             1.1702    -0.6317    -0.0129 N.ar    
   7 N7            -1.3120    -0.3990     0.0125 N.pl3   
   8 C8            -2.0778     0.7280     0.0258 C.2     
   9 N9            -1.3181     1.7846     0.0189 N.2     
  10 C10           -1.8019    -1.7797     0.0090 C.3     
  11 O11           -3.2308    -1.7781     0.0229 O.3     
  12 C12           -3.8136    -3.0829     0.0208 C.3     
  13 C13           -5.3386    -2.9604     0.0364 C.3     
  14 Si14          -6.0983    -4.6614     0.0336 Si      
  15 C15           -5.5349    -5.5956     1.5438 C.3     
  16 Br16           1.2616     3.9721     0.0107 Br      
  17 C17           -7.9552    -4.5123     0.0526 C.3     
  18 C18           -5.5645    -5.5775    -1.4982 C.3     
  19 H19            3.2316    -0.4867    -0.0318 H       
  20 H20           -3.1577     0.7422     0.0359 H       
  21 H21           -1.4478    -2.2886    -0.8875 H       
  22 H22           -1.4305    -2.2992     0.8923 H       
  23 H23           -3.5012    -3.6188    -0.8755 H       
  24 H24           -3.4839    -3.6294     0.9044 H       
  25 H25           -5.6509    -2.4244     0.9327 H       
  26 H26           -5.6682    -2.4138    -0.8472 H       
  27 H27           -5.8472    -5.0596     2.4401 H       
  28 H28           -5.9793    -6.5909     1.5422 H       
  29 H29           -4.4484    -5.6829     1.5327 H       
  30 H30           -8.2848    -3.9657    -0.8310 H       
  31 H31           -8.3997    -5.5075     0.0510 H       
  32 H32           -8.2675    -3.9763     0.9489 H       
  33 H33           -4.4780    -5.6648    -1.5093 H       
  34 H34           -6.0090    -6.5727    -1.4998 H       
  35 H35           -5.8941    -5.0309    -2.3818 H       
@<TRIPOS>BOND
   1    1    2 ar
   2    1    3 ar
   3    1    9 1
   4    2    7 1
   5    2    6 ar
   6    3    4 ar
   7    3   16 1
   8    4    5 ar
   9    5    6 ar
  10    5   19 1
  11    7    8 1
  12    7   10 1
  13    8    9 2
  14    8   20 1
  15   10   11 1
  16   10   21 1
  17   10   22 1
  18   11   12 1
  19   12   13 1
  20   12   23 1
  21   12   24 1
  22   13   14 1
  23   13   25 1
  24   13   26 1
  25   14   15 1
  26   14   17 1
  27   14   18 1
  28   15   27 1
  29   15   28 1
  30   15   29 1
  31   17   30 1
  32   17   31 1
  33   17   32 1
  34   18   33 1
  35   18   34 1
  36   18   35 1

#	End of record

