#	Name: ASD08151036
#	Creating user name:	WinNT
#	Creation time:	15. 06. 2019 21:17

#	Modifying user name:	WinNT
#	Modification time:	15. 06. 2019 21:17

#	Program:	/corina/corina34_cracker 3.40 0067  02.08.2006

@<TRIPOS>MOLECULE
ASD08151036
  52   54    0    0    0
SMALL
NO_CHARGES


@<TRIPOS>ATOM
   1 N1             0.4561     1.3912    -0.4873 N.ar    
   2 C2             0.7249     0.1090    -0.5316 C.ar    
   3 C3             2.0252    -0.3709    -0.3893 C.ar    
   4 C4             3.0570     0.5040    -0.1986 C.ar    
   5 C5             2.7629     1.8796    -0.1523 C.ar    
   6 C6             3.7799     2.8342     0.0409 C.ar    
   7 C7             3.4766     4.1567     0.0822 C.ar    
   8 C8             2.1485     4.5968    -0.0659 C.ar    
   9 C9             1.1175     3.6780    -0.2582 C.ar    
  10 C10            1.4194     2.2975    -0.3037 C.ar    
  11 C11            1.8452     6.0373    -0.0168 C.2     
  12 O12            0.8144     6.4245     0.4997 O.2     
  13 N13            2.7098     6.9264    -0.5444 N.am    
  14 C14            2.3621     8.3488    -0.5886 C.3     
  15 N15           -0.1884     4.1130    -0.4032 N.3     
  16 C16           -1.0264     3.6435     0.7090 C.3     
  17 C17           -2.4397     4.2101     0.5539 C.3     
  18 N18           -2.9964     3.7840    -0.7376 N.3     
  19 C19           -2.1584     4.2535    -1.8498 C.3     
  20 C20           -0.7452     3.6869    -1.6947 C.3     
  21 C21           -4.3825     4.2458    -0.8915 C.3     
  22 C22           -4.8896     3.8807    -2.2881 C.3     
  23 O23           -4.9142     2.4590    -2.4294 O.3     
  24 C24           -5.3752     2.0096    -3.7051 C.3     
  25 O25            3.9544     6.4856    -1.0561 O.3     
  26 C26            3.9512     6.2442    -2.4645 C.3     
  27 Cl27           5.4269     2.3180     0.2275 Cl      
  28 H28           -0.0818    -0.5931    -0.6818 H       
  29 H29            2.2171    -1.4329    -0.4293 H       
  30 H30            4.0710     0.1496    -0.0861 H       
  31 H31            4.2646     4.8802     0.2309 H       
  32 H32            2.7033     8.8348     0.3255 H       
  33 H33            2.8434     8.8140    -1.4488 H       
  34 H34            1.2808     8.4560    -0.6752 H       
  35 H35           -1.0681     2.5544     0.6983 H       
  36 H36           -0.6005     3.9822     1.6535 H       
  37 H37           -3.0706     3.8398     1.3619 H       
  38 H38           -2.4012     5.2988     0.5919 H       
  39 H39           -2.5844     3.9148    -2.7942 H       
  40 H40           -2.1167     5.3427    -1.8391 H       
  41 H41           -0.1142     4.0572    -2.5027 H       
  42 H42           -0.7837     2.5982    -1.7327 H       
  43 H43           -5.0105     3.7668    -0.1402 H       
  44 H44           -4.4216     5.3273    -0.7619 H       
  45 H45           -5.8959     4.2769    -2.4242 H       
  46 H46           -4.2258     4.3091    -3.0391 H       
  47 H47           -6.3916     2.3668    -3.8707 H       
  48 H48           -4.7215     2.3991    -4.4856 H       
  49 H49           -5.3641     0.9199    -3.7323 H       
  50 H50            3.2161     5.4745    -2.6995 H       
  51 H51            3.6949     7.1640    -2.9902 H       
  52 H52            4.9401     5.9099    -2.7781 H       
@<TRIPOS>BOND
   1    1    2 ar
   2    1   10 ar
   3    2    3 ar
   4    2   28 1
   5    3    4 ar
   6    3   29 1
   7    4    5 ar
   8    4   30 1
   9    5    6 ar
  10    5   10 ar
  11    6    7 ar
  12    6   27 1
  13    7    8 ar
  14    7   31 1
  15    8    9 ar
  16    8   11 1
  17    9   10 ar
  18    9   15 1
  19   11   12 2
  20   11   13 am
  21   13   14 1
  22   13   25 1
  23   14   32 1
  24   14   33 1
  25   14   34 1
  26   15   16 1
  27   15   20 1
  28   16   17 1
  29   16   35 1
  30   16   36 1
  31   17   18 1
  32   17   37 1
  33   17   38 1
  34   18   19 1
  35   18   21 1
  36   19   20 1
  37   19   39 1
  38   19   40 1
  39   20   41 1
  40   20   42 1
  41   21   22 1
  42   21   43 1
  43   21   44 1
  44   22   23 1
  45   22   45 1
  46   22   46 1
  47   23   24 1
  48   24   47 1
  49   24   48 1
  50   24   49 1
  51   25   26 1
  52   26   50 1
  53   26   51 1
  54   26   52 1

#	End of record

