#	Name: ASD01915344
#	Creating user name:	WinNT
#	Creation time:	15. 06. 2019 20:05

#	Modifying user name:	WinNT
#	Modification time:	15. 06. 2019 20:05

#	Program:	/corina/corina34_cracker 3.40 0067  02.08.2006

@<TRIPOS>MOLECULE
ASD01915344
  38   41    0    0    0
SMALL
NO_CHARGES


@<TRIPOS>ATOM
   1 C1            -0.0168     1.3900     0.0097 C.ar    
   2 C2             0.0021    -0.0041     0.0020 C.ar    
   3 N3            -1.1440    -0.6917     0.0097 N.ar    
   4 C4            -2.3170    -0.1010     0.0244 C.ar    
   5 C5            -2.4223     1.2791     0.0324 C.ar    
   6 C6            -1.2708     2.0472     0.0306 C.ar    
   7 C7             1.3280     1.9574    -0.0001 C.2     
   8 C8             2.3057     1.0547    -0.0143 C.2     
   9 S9             1.6661    -0.5769    -0.0169 S.3     
  10 C10            1.5834     3.4173     0.0048 C.ar    
  11 C11            1.2126     4.1888     1.1056 C.ar    
  12 S12            4.0229     1.4492    -0.0280 S.o2    
  13 O13            4.6887     0.3242    -0.5850 O.2     
  14 O14            4.1292     2.7601    -0.5661 O.2     
  15 C15            4.5469     1.5565     1.6509 C.ar    
  16 C16            5.0204     0.4317     2.3001 C.ar    
  17 C17            4.4896     2.7668     2.3165 C.ar    
  18 C18            4.9008     2.8517     3.6333 C.ar    
  19 C19            5.3695     1.7251     4.2854 C.ar    
  20 C20            5.4311     0.5151     3.6172 C.ar    
  21 C21            1.4527     5.5475     1.1049 C.ar    
  22 C22            2.0605     6.1451     0.0140 C.ar    
  23 C23            2.4307     5.3838    -1.0816 C.ar    
  24 C24            2.2005     4.0233    -1.0889 C.ar    
  25 Cl25           2.3591     7.8552     0.0195 Cl      
  26 Cl26           5.8863     1.8309     5.9393 Cl      
  27 O27           -1.3423     3.4023     0.0383 O.3     
  28 H28           -3.2143    -0.7021     0.0301 H       
  29 H29           -3.3932     1.7519     0.0442 H       
  30 H30            0.7381     3.7236     1.9570 H       
  31 H31            5.0691    -0.5126     1.7782 H       
  32 H32            4.1237     3.6462     1.8074 H       
  33 H33            4.8567     3.7974     4.1530 H       
  34 H34            5.7965    -0.3647     4.1258 H       
  35 H35            1.1656     6.1460     1.9569 H       
  36 H36            2.9042     5.8550    -1.9302 H       
  37 H37            2.4897     3.4304    -1.9440 H       
  38 H38           -1.3585     3.7903     0.9239 H       
@<TRIPOS>BOND
   1    1    2 ar
   2    1    7 1
   3    1    6 ar
   4    2    3 ar
   5    2    9 1
   6    3    4 ar
   7    4    5 ar
   8    4   28 1
   9    5    6 ar
  10    5   29 1
  11    6   27 1
  12    7    8 2
  13    7   10 1
  14    8    9 1
  15    8   12 1
  16   10   11 ar
  17   10   24 ar
  18   11   21 ar
  19   11   30 1
  20   12   13 2
  21   12   14 2
  22   12   15 1
  23   15   16 ar
  24   15   17 ar
  25   16   20 ar
  26   16   31 1
  27   17   18 ar
  28   17   32 1
  29   18   19 ar
  30   18   33 1
  31   19   20 ar
  32   19   26 1
  33   20   34 1
  34   21   22 ar
  35   21   35 1
  36   22   23 ar
  37   22   25 1
  38   23   24 ar
  39   23   36 1
  40   24   37 1
  41   27   38 1

#	End of record

