#	Name: ASD01190043
#	Creating user name:	WinNT
#	Creation time:	15. 06. 2019 19:07

#	Modifying user name:	WinNT
#	Modification time:	15. 06. 2019 19:07

#	Program:	/corina/corina34_cracker 3.40 0067  02.08.2006

@<TRIPOS>MOLECULE
ASD01190043
  59   63    0    0    0
SMALL
NO_CHARGES


@<TRIPOS>ATOM
   1 N1             0.0458     1.0988     0.2068 N.am    
   2 N2             0.1355    -0.2946     0.1226 N.2     
   3 C3             1.3812    -0.6585     0.0306 C.2     
   4 C4             2.2047     0.5489     0.0520 C.ar    
   5 C5             3.5812     0.7858    -0.0130 C.ar    
   6 C6             4.0517     2.0665     0.0331 C.ar    
   7 C7             3.1754     3.1383     0.1445 C.ar    
   8 C8             1.8159     2.9290     0.2101 C.ar    
   9 C9             1.3143     1.6325     0.1644 C.ar    
  10 C10           -1.0977     1.8049     0.3073 C.2     
  11 O11           -1.0591     3.0178     0.3739 O.2     
  12 N12           -2.2842     1.1661     0.3338 N.am    
  13 C13           -3.5272     1.9337     0.4431 C.3     
  14 C14           -4.7195     0.9750     0.4518 C.3     
  15 C15           -6.0229     1.7571     0.6914 C.3     
  16 C16           -6.9106     1.5246    -0.5487 C.3     
  17 C17           -6.3907     0.1924    -1.1436 C.3     
  18 C18           -4.8607     0.2947    -0.9255 C.3     
  19 C19            5.5357     2.3197    -0.0371 C.3     
  20 C20            6.1975     1.8345     1.2542 C.3     
  21 N21            7.3505     0.1872    -2.4279 N.pl3   
  22 C22            7.0813     0.6411    -1.1654 C.2     
  23 C23            6.1175     1.5744    -1.2106 C.2     
  24 C24            5.7386     1.7310    -2.6169 C.ar    
  25 C25            4.8133     2.5317    -3.2894 C.ar    
  26 C26            4.6970     2.4394    -4.6476 C.ar    
  27 C27            5.4916     1.5555    -5.3650 C.ar    
  28 C28            6.4105     0.7560    -4.7217 C.ar    
  29 C29            6.5461     0.8338    -3.3392 C.ar    
  30 C30            8.3502    -0.8307    -2.7609 C.3     
  31 O31            5.7730     3.7198    -0.1970 O.3     
  32 F32            5.9651     0.4638     1.4107 F       
  33 F33            7.5750     2.0695     1.1890 F       
  34 F34            5.6574     2.5264     2.3435 F       
  35 H35            1.7429    -1.6732    -0.0473 H       
  36 H36            4.2699    -0.0417    -0.0990 H       
  37 H37            3.5638     4.1454     0.1804 H       
  38 H38            1.1417     3.7683     0.2970 H       
  39 H39           -2.3151     0.1980     0.2806 H       
  40 H40           -3.5179     2.5105     1.3679 H       
  41 H41           -3.6118     2.6111    -0.4067 H       
  42 H42           -4.5874     0.2224     1.2291 H       
  43 H43           -6.5238     1.3834     1.5845 H       
  44 H44           -5.8060     2.8196     0.8015 H       
  45 H45           -7.9565     1.4297    -0.2567 H       
  46 H46           -6.7857     2.3368    -1.2649 H       
  47 H47           -6.8021    -0.6592    -0.6018 H       
  48 H48           -6.6259     0.1259    -2.2059 H       
  49 H49           -4.4047     0.9082    -1.7026 H       
  50 H50           -4.4106    -0.6979    -0.9086 H       
  51 H51            7.5713     0.2989    -0.2659 H       
  52 H52            4.1914     3.2213    -2.7379 H       
  53 H53            3.9809     3.0587    -5.1672 H       
  54 H54            5.3881     1.4939    -6.4383 H       
  55 H55            7.0239     0.0713    -5.2886 H       
  56 H56            7.8878    -1.8173    -2.7313 H       
  57 H57            8.7412    -0.6424    -3.7607 H       
  58 H58            9.1652    -0.7896    -2.0383 H       
  59 H59            5.3811     4.0963    -0.9968 H       
@<TRIPOS>BOND
   1    1    2 1
   2    1    9 1
   3    1   10 am
   4    2    3 2
   5    3    4 1
   6    3   35 1
   7    4    5 ar
   8    4    9 ar
   9    5    6 ar
  10    5   36 1
  11    6    7 ar
  12    6   19 1
  13    7    8 ar
  14    7   37 1
  15    8    9 ar
  16    8   38 1
  17   10   11 2
  18   10   12 am
  19   12   13 1
  20   12   39 1
  21   13   14 1
  22   13   40 1
  23   13   41 1
  24   14   15 1
  25   14   18 1
  26   14   42 1
  27   15   16 1
  28   15   43 1
  29   15   44 1
  30   16   17 1
  31   16   45 1
  32   16   46 1
  33   17   18 1
  34   17   47 1
  35   17   48 1
  36   18   49 1
  37   18   50 1
  38   19   20 1
  39   19   23 1
  40   19   31 1
  41   20   32 1
  42   20   33 1
  43   20   34 1
  44   21   22 1
  45   21   29 1
  46   21   30 1
  47   22   23 2
  48   22   51 1
  49   23   24 1
  50   24   25 ar
  51   24   29 ar
  52   25   26 ar
  53   25   52 1
  54   26   27 ar
  55   26   53 1
  56   27   28 ar
  57   27   54 1
  58   28   29 ar
  59   28   55 1
  60   30   56 1
  61   30   57 1
  62   30   58 1
  63   31   59 1

#	End of record

