#	Name: ASD01900186
#	Creating user name:	WinNT
#	Creation time:	15. 06. 2019 19:51

#	Modifying user name:	WinNT
#	Modification time:	15. 06. 2019 19:51

#	Program:	/corina/corina34_cracker 3.40 0067  02.08.2006

@<TRIPOS>MOLECULE
ASD01900186
  40   43    0    0    0
SMALL
NO_CHARGES


@<TRIPOS>ATOM
   1 N1            -0.0167     1.3814     0.0096 N.pl3   
   2 S2            -1.3891    -0.9986     0.0100 S.3     
   3 C3             0.0021    -0.0041     0.0020 C.2     
   4 N4             1.0774    -0.7295    -0.0126 N.2     
   5 C5             0.9151    -2.0408    -0.0338 C.2     
   6 C6             1.9524    -3.1111    -0.1944 C.2     
   7 C7             1.7047    -4.1908    -1.0677 C.2     
   8 C8             0.4978    -4.2618    -1.9524 C.3     
   9 C9            -0.7828    -4.6371    -1.1868 C.3     
  10 C10           -0.8004    -3.8666     0.1433 C.3     
  11 C11           -0.3807    -2.4356     0.0245 C.2     
  12 N12            2.7112    -5.0097    -0.9695 N.2     
  13 N13            3.6474    -4.4588    -0.0797 N.pl3   
  14 C14            3.1570    -3.2791     0.3756 C.2     
  15 C15            1.2419     2.1311     0.0016 C.3     
  16 C16            1.0053     3.5185    -0.5983 C.3     
  17 C17            2.3198     4.3015    -0.6067 C.3     
  18 C18            2.8360     4.4467     0.8263 C.3     
  19 C19            3.0726     3.0593     1.4262 C.3     
  20 C20            1.7581     2.2763     1.4346 C.3     
  21 H21           -0.8633     1.8549     0.0162 H       
  22 H22            0.3521    -3.2912    -2.4265 H       
  23 H23            0.6744    -5.0065    -2.7284 H       
  24 H24           -1.6565    -4.3651    -1.7791 H       
  25 H25           -0.7903    -5.7090    -0.9892 H       
  26 H26           -1.8111    -3.8992     0.5500 H       
  27 H27           -0.1317    -4.3674     0.8434 H       
  28 H28            4.4981    -4.8541     0.1672 H       
  29 H29            3.6424    -2.6037     1.0645 H       
  30 H30            1.9792     1.5970    -0.5977 H       
  31 H31            0.6375     3.4150    -1.6192 H       
  32 H32            0.2680     4.0526     0.0011 H       
  33 H33            3.0570     3.7673    -1.2060 H       
  34 H34            2.1512     5.2899    -1.0341 H       
  35 H35            3.7724     5.0045     0.8203 H       
  36 H36            2.0987     4.9809     1.4257 H       
  37 H37            3.8098     2.5252     0.8269 H       
  38 H38            3.4403     3.1628     2.4471 H       
  39 H39            1.0209     2.8105     2.0340 H       
  40 H40            1.9267     1.2879     1.8620 H       
@<TRIPOS>BOND
   1    1    3 1
   2    1   15 1
   3    1   21 1
   4    2    3 1
   5    2   11 1
   6    3    4 2
   7    4    5 1
   8    5    6 1
   9    5   11 2
  10    6    7 1
  11    6   14 2
  12    7    8 1
  13    7   12 2
  14    8    9 1
  15    8   22 1
  16    8   23 1
  17    9   10 1
  18    9   24 1
  19    9   25 1
  20   10   11 1
  21   10   26 1
  22   10   27 1
  23   12   13 1
  24   13   14 1
  25   13   28 1
  26   14   29 1
  27   15   16 1
  28   15   20 1
  29   15   30 1
  30   16   17 1
  31   16   31 1
  32   16   32 1
  33   17   18 1
  34   17   33 1
  35   17   34 1
  36   18   19 1
  37   18   35 1
  38   18   36 1
  39   19   20 1
  40   19   37 1
  41   19   38 1
  42   20   39 1
  43   20   40 1

#	End of record

