#	Name: ASD00111049
#	Creating user name:	WinNT
#	Creation time:	15. 06. 2019 18:30

#	Modifying user name:	WinNT
#	Modification time:	15. 06. 2019 18:30

#	Program:	/corina/corina34_cracker 3.40 0067  02.08.2006

@<TRIPOS>MOLECULE
ASD00111049
  34   35    0    0    0
SMALL
NO_CHARGES


@<TRIPOS>ATOM
   1 C1            -0.0167     1.3829     0.0096 C.ar    
   2 C2             0.0021    -0.0041     0.0020 C.ar    
   3 C3            -1.1914    -0.7137     0.0091 C.ar    
   4 C4            -2.3915    -0.0295     0.0237 C.ar    
   5 C5            -2.4075     1.3444     0.0315 C.ar    
   6 C6            -1.2231     2.0581     0.0305 C.ar    
   7 C7            -3.6959    -0.7994     0.0299 C.3     
   8 C8            -4.3580    -0.6128     1.3987 C.3     
   9 N9            -5.1349     0.6155     1.4346 N.3     
  10 C10           -4.3867     1.8618     1.4150 C.3     
  11 C11           -3.7302     2.0827     0.0480 C.3     
  12 C12           -3.4894     3.5773    -0.1730 C.3     
  13 O13            1.1878    -0.6679    -0.0128 O.3     
  14 C14            1.1318    -2.0958    -0.0200 C.3     
  15 C15            1.2781     2.1539     0.0014 C.3     
  16 F16            1.0040     3.5258     0.0114 F       
  17 F17            2.0270     1.8197     1.1348 F       
  18 F18            2.0052     1.8320    -1.1496 F       
  19 H19           -1.1815    -1.7936     0.0029 H       
  20 H20           -1.2404     3.1380     0.0362 H       
  21 H21           -4.3525    -0.4160    -0.7512 H       
  22 H22           -3.4988    -1.8576    -0.1417 H       
  23 H23           -5.0158    -1.4589     1.5971 H       
  24 H24           -3.5864    -0.5715     2.1675 H       
  25 H25           -5.8501     0.6119     0.7229 H       
  26 H26           -5.0638     2.6897     1.6254 H       
  27 H27           -3.6138     1.8279     2.1828 H       
  28 H28           -4.3780     1.6942    -0.7378 H       
  29 H29           -2.8330     3.9592     0.6089 H       
  30 H30           -3.0225     3.7301    -1.1460 H       
  31 H31           -4.4412     4.1075    -0.1395 H       
  32 H32            0.6127    -2.4435     0.8731 H       
  33 H33            0.5957    -2.4340    -0.9067 H       
  34 H34            2.1444    -2.4991    -0.0318 H       
@<TRIPOS>BOND
   1    1    2 ar
   2    1   15 1
   3    1    6 ar
   4    2    3 ar
   5    2   13 1
   6    3    4 ar
   7    3   19 1
   8    4    5 ar
   9    4    7 1
  10    5    6 ar
  11    5   11 1
  12    6   20 1
  13    7    8 1
  14    7   21 1
  15    7   22 1
  16    8    9 1
  17    8   23 1
  18    8   24 1
  19    9   10 1
  20    9   25 1
  21   10   11 1
  22   10   26 1
  23   10   27 1
  24   11   12 1
  25   11   28 1
  26   12   29 1
  27   12   30 1
  28   12   31 1
  29   13   14 1
  30   14   32 1
  31   14   33 1
  32   14   34 1
  33   15   16 1
  34   15   17 1
  35   15   18 1

#	End of record

