#	Name: ASD06610088
#	Creating user name:	WinNT
#	Creation time:	15. 06. 2019 21:07

#	Modifying user name:	WinNT
#	Modification time:	15. 06. 2019 21:07

#	Program:	/corina/corina34_cracker 3.40 0067  02.08.2006

@<TRIPOS>MOLECULE
ASD06610088
 393  394    0    0    0
SMALL
NO_CHARGES


@<TRIPOS>ATOM
   1 C1            -4.6123    -5.2780     2.2074 C.2     
   2 O2            -4.7672    -6.4808     2.2177 O.2     
   3 N3            -2.2398    -5.7842     2.1439 N.am    
   4 C4            -3.2221    -4.6976     2.1658 C.3     
   5 C5            -3.0642    -3.8418     0.9075 C.3     
   6 C6            -1.7187    -3.1633     0.9270 C.2     
   7 C7            -0.7836    -3.2322    -0.0396 C.2     
   8 N8             0.2761    -2.4740     0.3798 N.pl3   
   9 C9            -0.0486    -1.9679     1.5890 C.2     
  10 N10           -1.2450    -2.3803     1.9076 N.2     
  11 C11           -8.0083    -4.0330     1.6782 C.2     
  12 O12           -7.6120    -2.9607     1.2734 O.2     
  13 N13           -5.6835    -4.4604     2.2276 N.am    
  14 C14           -7.0351    -5.0246     2.2619 C.3     
  15 C15           -7.4240    -5.3290     3.7100 C.3     
  16 C16           -6.5266    -6.4103     4.2545 C.ar    
  17 C17           -5.3440    -6.0740     4.8862 C.ar    
  18 C18           -4.5208    -7.0660     5.3856 C.ar    
  19 C19           -4.8805    -8.3941     5.2536 C.ar    
  20 C20           -6.0636    -8.7304     4.6227 C.ar    
  21 C21           -6.8889    -7.7383     4.1271 C.ar    
  22 C22          -11.6409    -3.6319     1.5974 C.2     
  23 O23          -11.8140    -4.5321     2.3915 O.2     
  24 N24           -9.3192    -4.3380     1.6061 N.am    
  25 C25          -10.2653    -3.3741     1.0387 C.3     
  26 C26          -10.2965    -3.5256    -0.4835 C.3     
  27 C27           -8.9328    -3.1429    -1.0622 C.3     
  28 C28           -8.9640    -3.2945    -2.5843 C.3     
  29 N29           -7.6583    -2.9281    -3.1384 N.pl3   
  30 C30           -7.4465    -2.9865    -4.4956 C.2     
  31 N31           -6.2848    -2.6605    -4.9886 N.2     
  32 N32           -8.4601    -3.3889    -5.3328 N.pl3   
  33 C33          -15.0544    -2.5998     0.7936 C.2     
  34 O34          -14.7110    -2.0764    -0.2453 O.2     
  35 N35          -12.6789    -2.8620     1.2148 N.am    
  36 C36          -14.0162    -3.1127     1.7580 C.3     
  37 C37          -14.1653    -2.3914     3.0990 C.3     
  38 C38          -13.1955    -2.9980     4.1151 C.3     
  39 C39          -13.3446    -2.2768     5.4561 C.3     
  40 C40          -12.3748    -2.8834     6.4721 C.3     
  41 N41          -12.5180    -2.1909     7.7597 N.3     
  42 C42          -18.6422    -1.9070     0.8971 C.2     
  43 O43          -18.6977    -2.0804     2.0962 O.2     
  44 N44          -16.3644    -2.7227     1.0854 N.am    
  45 C45          -17.3736    -2.2241     0.1479 C.3     
  46 C46          -17.6594    -3.2923    -0.9096 C.3     
  47 C47          -16.4036    -3.5244    -1.7523 C.3     
  48 C48          -16.6850    -4.5766    -2.7938 C.2     
  49 O49          -17.7778    -5.0883    -2.8557 O.2     
  50 O50          -15.7217    -4.9453    -3.6528 O.3     
  51 C51          -22.1222    -1.2089     0.0222 C.2     
  52 O52          -21.9462    -1.4994    -1.1420 O.2     
  53 N53          -19.7149    -1.4307     0.2347 N.am    
  54 C54          -20.9481    -1.1224     0.9630 C.3     
  55 C55          -20.8598     0.2920     1.5397 C.3     
  56 C56          -19.7463     0.3469     2.5876 C.3     
  57 C57          -19.6580     1.7613     3.1643 C.3     
  58 N58          -18.5918     1.8139     4.1676 N.pl3   
  59 C59          -18.3250     2.9909     4.8261 C.2     
  60 N60          -17.3764     3.0377     5.7188 N.2     
  61 N61          -19.0587     4.1185     4.5431 N.pl3   
  62 C62          -25.4994     0.0888    -0.0131 C.2     
  63 O63          -25.3053     0.7241     1.0016 O.2     
  64 N64          -23.3677    -0.9634     0.4746 N.am    
  65 C65          -24.4957    -0.9426    -0.4600 C.3     
  66 C66          -25.1593    -2.3209    -0.4891 C.3     
  67 C67          -25.4661    -2.7696     0.9411 C.3     
  68 C68          -26.5533    -1.8717     1.5351 C.3     
  69 C69          -24.2146    -3.3280    -1.1480 C.3     
  70 C70          -28.9689     0.8755    -0.8538 C.2     
  71 O71          -29.0599    -0.0713    -1.6063 O.2     
  72 N72          -26.6128     0.3054    -0.7411 N.am    
  73 C73          -27.6330     1.2397    -0.2590 C.3     
  74 C74          -27.2595     2.6632    -0.6774 C.3     
  75 C75          -25.9657     3.0785     0.0258 C.3     
  76 C76          -25.5978     4.4806    -0.3863 C.2     
  77 O77          -26.2985     5.0856    -1.1628 O.2     
  78 O78          -24.4916     5.0573     0.1091 O.3     
  79 C79          -32.4108     2.2089    -0.6317 C.2     
  80 O80          -32.1042     3.1017     0.1298 O.2     
  81 N81          -30.0626     1.6019    -0.5494 N.am    
  82 C82          -31.3613     1.2478    -1.1276 C.3     
  83 C83          -36.0636     2.3497    -0.6086 C.2     
  84 O84          -36.1657     1.2104    -1.0117 O.2     
  85 N85          -33.6902     2.0763    -1.0343 N.am    
  86 C86          -34.7104     3.0106    -0.5522 C.3     
  87 C87          -34.7159     4.2600    -1.4353 C.3     
  88 C88          -33.3851     4.9991    -1.2815 C.3     
  89 C89          -33.3408     6.1778    -2.2560 C.3     
  90 C90          -33.2522     5.5173     0.1520 C.3     
  91 C91          -39.5459     3.4374    -0.3772 C.2     
  92 O92          -39.2399     4.6105    -0.4079 O.2     
  93 N93          -37.1603     3.0247    -0.2109 N.am    
  94 C94          -38.4757     2.3822    -0.2657 C.3     
  95 C95          -38.6971     1.5639     1.0081 C.3     
  96 C96          -37.6875     0.4154     1.0583 C.3     
  97 C97          -37.9088    -0.4028     2.3320 C.3     
  98 N98          -36.9421    -1.5025     2.3801 N.pl3   
  99 C99          -36.9489    -2.3779     3.4402 C.2     
 100 N100         -37.8155    -2.2295     4.4024 N.2     
 101 N101         -36.0417    -3.4099     3.4854 N.pl3   
 102 C102         -43.1805     3.5625    -0.0069 C.2     
 103 O103         -43.2310     2.4317     0.4286 O.2     
 104 N104         -40.8430     3.0773    -0.4428 N.am    
 105 C105         -41.8833     4.1031    -0.5512 C.3     
 106 C106         -42.0680     4.4890    -2.0201 C.3     
 107 C107         -40.7901     5.1523    -2.5377 C.3     
 108 C108         -40.9747     5.5381    -4.0067 C.3     
 109 C109         -39.6968     6.2014    -4.5243 C.3     
 110 N110         -39.8741     6.5719    -5.9347 N.3     
 111 C111         -46.7000     4.5456    -0.1053 C.2     
 112 O112         -46.4902     5.4224    -0.9164 O.2     
 113 N113         -44.2845     4.3356    -0.0042 N.am    
 114 C114         -45.5455     3.8100     0.5249 C.3     
 115 C115         -45.5831     4.0057     2.0418 C.3     
 116 C116         -44.4871     3.1594     2.6926 C.3     
 117 C117         -44.5247     3.3551     4.2095 C.3     
 118 N118         -43.4752     2.5447     4.8326 N.pl3   
 119 C119         -43.3154     2.5588     6.1980 C.2     
 120 N120         -42.3817     1.8378     6.7524 N.2     
 121 N121         -44.1404     3.3335     6.9787 N.pl3   
 122 C122         -50.2830     4.8824     0.5362 C.2     
 123 O123         -50.2048     4.2988     1.5964 O.2     
 124 N124         -47.9657     4.2290     0.2326 N.am    
 125 C125         -49.0881     4.9440    -0.3800 C.3     
 126 C126         -49.4381     4.2922    -1.7192 C.3     
 127 C127         -48.2693     4.4647    -2.6913 C.3     
 128 C128         -48.6193     3.8129    -4.0305 C.3     
 129 N129         -47.5001     3.9780    -4.9614 N.pl3   
 130 C130         -47.5855     3.4701    -6.2360 C.2     
 131 N131         -48.6621     2.8415    -6.6164 N.2     
 132 N132         -46.5352     3.6251    -7.1096 N.pl3   
 133 C133         -53.8620     5.5731     0.2590 C.2     
 134 O134         -53.7973     5.7204    -0.9431 O.2     
 135 N135         -51.4386     5.4760     0.1773 N.am    
 136 C136         -52.6003     5.4162     1.0679 C.3     
 137 C137         -52.5115     6.5437     2.0983 C.3     
 138 C138         -51.2973     6.3154     3.0009 C.3     
 139 C139         -51.2086     7.4429     4.0313 C.3     
 140 N140         -50.0460     7.2243     4.8954 N.pl3   
 141 C141         -49.7613     8.1152     5.9031 C.2     
 142 N142         -50.5257     9.1543     6.0896 N.2     
 143 N143         -48.6702     7.9100     6.7141 N.pl3   
 144 C144         -57.3758     6.2639     1.0357 C.2     
 145 O145         -57.2605     6.0977     2.2315 O.2     
 146 N146         -55.0624     5.5497     0.8714 N.am    
 147 C147         -56.2820     5.8115     0.1031 C.3     
 148 C148         -56.7187     4.5315    -0.6123 C.3     
 149 C149         -57.9984     4.8021    -1.4061 C.3     
 150 C150         -57.6921     5.7659    -2.5542 C.3     
 151 C151         -58.5342     3.4863    -1.9739 C.3     
 152 C152         -60.8662     7.2881     0.6728 C.2     
 153 O153         -60.8788     7.0240    -0.5109 O.2     
 154 N154         -58.4823     6.8532     0.5409 N.am    
 155 C155         -59.5709     7.2408     1.4415 C.3     
 156 C156         -59.2773     8.6216     2.0316 C.3     
 157 C157         -58.0299     8.5444     2.9141 C.3     
 158 C158         -57.6639     9.9470     3.4036 C.3     
 159 C159         -58.3112     7.6417     4.1169 C.3     
 160 C160         -63.4100     9.0144    -0.1125 C.2     
 161 O161         -62.5467     9.8488     0.0233 O.2     
 162 N162         -62.0105     7.6238     1.3006 N.am    
 163 C163         -63.2697     7.6698     0.5533 C.3     
 164 C164         -64.4408     7.4514     1.5133 C.3     
 165 O165         -64.5092     8.5400     2.4366 O.3     
 166 O166         -64.4940     9.2852    -0.8564 O.3     
 167 C167          -0.9900    -5.5721     2.6015 C.2     
 168 O168          -0.6785    -4.4817     3.0315 O.2     
 169 C169          16.4991   -11.1225     6.4111 C.3     
 170 C170          15.4732    -9.9877     6.4341 C.3     
 171 C171          14.1450   -10.4893     5.8637 C.3     
 172 C172          13.1191    -9.3545     5.8866 C.3     
 173 C173          11.7910    -9.8561     5.3162 C.3     
 174 C174          10.7650    -8.7212     5.3391 C.3     
 175 C175           9.4369    -9.2228     4.7687 C.3     
 176 C176           8.4109    -8.0880     4.7917 C.3     
 177 C177           7.0828    -8.5896     4.2213 C.3     
 178 C178           6.0569    -7.4548     4.2442 C.3     
 179 C179           4.7287    -7.9564     3.6738 C.3     
 180 C180           3.7028    -6.8215     3.6968 C.3     
 181 C181           2.3746    -7.3231     3.1264 C.3     
 182 C182           1.3487    -6.1883     3.1493 C.3     
 183 C183           0.0206    -6.6899     2.5789 C.3     
 184 H184          -2.4889    -6.6564     1.8000 H       
 185 H185          -3.0601    -4.0791     3.0486 H       
 186 H186          -3.1381    -4.4768     0.0246 H       
 187 H187          -3.8509    -3.0879     0.8797 H       
 188 H188          -0.8557    -3.7805    -0.9673 H       
 189 H189           1.1054    -2.3276    -0.1016 H       
 190 H190           0.5766    -1.3250     2.1907 H       
 191 H191          -5.5596    -3.4983     2.2194 H       
 192 H192          -7.0597    -5.9447     1.6780 H       
 193 H193          -7.3139    -4.4277     4.3130 H       
 194 H194          -8.4603    -5.6651     3.7449 H       
 195 H195          -5.0630    -5.0364     4.9894 H       
 196 H196          -3.5965    -6.8032     5.8786 H       
 197 H197          -4.2370    -9.1691     5.6431 H       
 198 H198          -6.3444    -9.7681     4.5192 H       
 199 H199          -7.8150    -8.0008     3.6374 H       
 200 H200          -9.6361    -5.1956     1.9299 H       
 201 H201          -9.9520    -2.3624     1.2967 H       
 202 H202         -10.5231    -4.5602    -0.7411 H       
 203 H203         -11.0636    -2.8716    -0.8981 H       
 204 H204          -8.7062    -2.1083    -0.8046 H       
 205 H205          -8.1657    -3.7970    -0.6476 H       
 206 H206          -9.1906    -4.3291    -2.8419 H       
 207 H207          -9.7311    -2.6405    -2.9989 H       
 208 H208          -6.9431    -2.6442    -2.5478 H       
 209 H209          -6.1354    -2.7018    -5.9461 H       
 210 H210          -9.3247    -3.6315    -4.9659 H       
 211 H211          -8.3108    -3.4301    -6.2903 H       
 212 H212         -12.5405    -2.1420     0.5797 H       
 213 H213         -14.1540    -4.1840     1.9043 H       
 214 H214         -13.9403    -1.3328     2.9692 H       
 215 H215         -15.1875    -2.5039     3.4604 H       
 216 H216         -13.4205    -4.0566     4.2449 H       
 217 H217         -12.1733    -2.8855     3.7537 H       
 218 H218         -13.1196    -1.2182     5.3263 H       
 219 H219         -14.3668    -2.3893     5.8175 H       
 220 H220         -12.5998    -3.9420     6.6019 H       
 221 H221         -11.3526    -2.7709     6.1107 H       
 222 H222         -11.8875    -2.5736     8.4482 H       
 223 H223         -12.3776    -1.1974     7.6535 H       
 224 H224         -16.6390    -3.1413     1.9163 H       
 225 H225         -17.0035    -1.3214    -0.3383 H       
 226 H226         -17.9444    -4.2227    -0.4184 H       
 227 H227         -18.4725    -2.9576    -1.5537 H       
 228 H228         -16.1186    -2.5940    -2.2435 H       
 229 H229         -15.5905    -3.8591    -1.1082 H       
 230 H230         -15.9494    -5.6238    -4.3030 H       
 231 H231         -19.6705    -1.2920    -0.7243 H       
 232 H232         -21.0793    -1.8381     1.7746 H       
 233 H233         -20.6401     0.9979     0.7388 H       
 234 H234         -21.8098     0.5546     2.0050 H       
 235 H235         -19.9660    -0.3590     3.3886 H       
 236 H236         -18.7962     0.0843     2.1223 H       
 237 H237         -19.4383     2.4672     2.3633 H       
 238 H238         -20.6080     2.0239     3.6296 H       
 239 H239         -18.0741     1.0183     4.3674 H       
 240 H240         -17.1881     3.8681     6.1834 H       
 241 H241         -19.7647     4.0837     3.8787 H       
 242 H242         -18.8705     4.9490     5.0077 H       
 243 H243         -23.5174    -0.8005     1.4191 H       
 244 H244         -24.1362    -0.6913    -1.4578 H       
 245 H245         -26.0866    -2.2657    -1.0594 H       
 246 H246         -25.8134    -3.8027     0.9312 H       
 247 H247         -24.5629    -2.6957     1.5467 H       
 248 H248         -26.1462    -0.8761     1.7112 H       
 249 H249         -27.3894    -1.8045     0.8391 H       
 250 H250         -26.8989    -2.2950     2.4783 H       
 251 H251         -23.3305    -3.4589    -0.5239 H       
 252 H252         -24.7246    -4.2847    -1.2607 H       
 253 H253         -23.9155    -2.9579    -2.1286 H       
 254 H254         -26.7386    -0.1574    -1.5842 H       
 255 H255         -27.6920     1.1841     0.8280 H       
 256 H256         -27.1136     2.6981    -1.7570 H       
 257 H257         -28.0610     3.3465    -0.3968 H       
 258 H258         -26.1115     3.0436     1.1054 H       
 259 H259         -25.1642     2.3952    -0.2549 H       
 260 H260         -24.2969     5.9578    -0.1845 H       
 261 H261         -29.9899     2.3591     0.0524 H       
 262 H262         -31.6274     0.2337    -0.8296 H       
 263 H263         -31.3024     1.3034    -2.2146 H       
 264 H264         -33.9354     1.3623    -1.6434 H       
 265 H265         -34.4868     3.2937     0.4764 H       
 266 H266         -34.8512     3.9682    -2.4768 H       
 267 H267         -35.5326     4.9153    -1.1326 H       
 268 H268         -32.5633     4.3169    -1.4989 H       
 269 H269         -34.1626     6.8601    -2.0386 H       
 270 H270         -32.3927     6.7044    -2.1464 H       
 271 H271         -33.4354     5.8087    -3.2772 H       
 272 H272         -33.2838     4.6775     0.8462 H       
 273 H273         -32.3042     6.0438     0.2615 H       
 274 H274         -34.0740     6.1995     0.3693 H       
 275 H275         -37.0786     3.9359     0.1115 H       
 276 H276         -38.5228     1.7239    -1.1332 H       
 277 H277         -38.5622     2.2046     1.8795 H       
 278 H278         -39.7089     1.1585     1.0082 H       
 279 H279         -37.8223    -0.2252     0.1869 H       
 280 H280         -36.6757     0.8209     1.0582 H       
 281 H281         -37.7740     0.2379     3.2035 H       
 282 H282         -38.9206    -0.8082     2.3322 H       
 283 H283         -36.2971    -1.6130     1.6641 H       
 284 H284         -37.8204    -2.8471     5.1504 H       
 285 H285         -35.3968    -3.5204     2.7693 H       
 286 H286         -36.0465    -4.0276     4.2333 H       
 287 H287         -41.0877     2.1390    -0.4182 H       
 288 H288         -41.5876     4.9824     0.0211 H       
 289 H289         -42.2766     3.5946    -2.6073 H       
 290 H290         -42.9013     5.1857    -2.1108 H       
 291 H291         -40.5815     6.0466    -1.9506 H       
 292 H292         -39.9567     4.4555    -2.4471 H       
 293 H293         -41.1833     4.6438    -4.5938 H       
 294 H294         -41.8081     6.2348    -4.0974 H       
 295 H295         -39.4882     7.0958    -3.9371 H       
 296 H296         -38.8635     5.5047    -4.4336 H       
 297 H297         -39.0430     7.0122    -6.3001 H       
 298 H298         -40.1320     5.7697    -6.4896 H       
 299 H299         -44.2441     5.2400    -0.3525 H       
 300 H300         -45.6218     2.7476     0.2936 H       
 301 H301         -45.4178     5.0572     2.2768 H       
 302 H302         -46.5559     3.6966     2.4241 H       
 303 H303         -44.6523     2.1079     2.4576 H       
 304 H304         -43.5142     3.4685     2.3103 H       
 305 H305         -44.3594     4.4066     4.4444 H       
 306 H306         -45.4975     3.0460     4.5917 H       
 307 H307         -42.8932     1.9982     4.2818 H       
 308 H308         -42.2689     1.8478     7.7158 H       
 309 H309         -44.8352     3.8700     6.5662 H       
 310 H310         -44.0276     3.3434     7.9421 H       
 311 H311         -48.1335     3.5276     0.8814 H       
 312 H312         -48.8095     5.9849    -0.5444 H       
 313 H313         -49.6304     3.2301    -1.5671 H       
 314 H314         -50.3278     4.7669    -2.1329 H       
 315 H315         -48.0769     5.5267    -2.8434 H       
 316 H316         -47.3796     3.9899    -2.2777 H       
 317 H317         -48.8116     2.7508    -3.8784 H       
 318 H318         -49.5090     4.2876    -4.4442 H       
 319 H319         -46.6989     4.4458    -4.6783 H       
 320 H320         -48.7223     2.4831    -7.5157 H       
 321 H321         -45.7340     4.0929    -6.8265 H       
 322 H322         -46.5954     3.2667    -8.0089 H       
 323 H323         -51.5011     5.9428    -0.6707 H       
 324 H324         -52.6151     4.4549     1.5816 H       
 325 H325         -52.4072     7.4988     1.5837 H       
 326 H326         -53.4176     6.5544     2.7041 H       
 327 H327         -51.4016     5.3602     3.5155 H       
 328 H328         -50.3912     6.3046     2.3951 H       
 329 H329         -51.1043     8.3981     3.5166 H       
 330 H330         -52.1147     7.4536     4.6370 H       
 331 H331         -49.4771     6.4510     4.7567 H       
 332 H332         -50.3249     9.7829     6.8005 H       
 333 H333         -48.1013     7.1367     6.5753 H       
 334 H334         -48.4694     8.5386     7.4250 H       
 335 H335         -55.1188     5.3595     1.8209 H       
 336 H336         -56.0870     6.5909    -0.6335 H       
 337 H337         -55.9306     4.2085    -1.2925 H       
 338 H338         -56.9062     3.7498     0.1238 H       
 339 H339         -58.7465     5.2457    -0.7490 H       
 340 H340         -57.2451     6.6763    -2.1549 H       
 341 H341         -56.9971     5.2943    -3.2489 H       
 342 H342         -58.6160     6.0138    -3.0767 H       
 343 H343         -58.7523     2.7997    -1.1559 H       
 344 H344         -59.4458     3.6791    -2.5394 H       
 345 H345         -57.7860     3.0427    -2.6309 H       
 346 H346         -58.5580     7.0207    -0.4115 H       
 347 H347         -59.6530     6.5114     2.2473 H       
 348 H348         -59.1074     9.3333     1.2237 H       
 349 H349         -60.1269     8.9486     2.6311 H       
 350 H350         -57.2015     8.1333     2.3371 H       
 351 H351         -58.4923    10.3582     3.9806 H       
 352 H352         -56.7752     9.8920     4.0323 H       
 353 H353         -57.4635    10.5902     2.5467 H       
 354 H354         -58.5719     6.6425     3.7682 H       
 355 H355         -57.4225     7.5867     4.7457 H       
 356 H356         -59.1395     8.0528     4.6939 H       
 357 H357         -62.0004     7.8351     2.2473 H       
 358 H358         -63.2709     6.8869    -0.2052 H       
 359 H359         -65.3702     7.3969     0.9464 H       
 360 H360         -64.2937     6.5200     2.0601 H       
 361 H361         -65.2303     8.4679     3.0769 H       
 362 H362         -64.5394    10.1611    -1.2636 H       
 363 H363          16.6479   -11.4572     5.3845 H       
 364 H364          17.4453   -10.7652     6.8175 H       
 365 H365          16.1351   -11.9537     7.0151 H       
 366 H366          15.3245    -9.6531     7.4607 H       
 367 H367          15.8372    -9.1566     5.8301 H       
 368 H368          14.2938   -10.8239     4.8370 H       
 369 H369          13.7810   -11.3205     6.4676 H       
 370 H370          12.9704    -9.0198     6.9132 H       
 371 H371          13.4831    -8.5233     5.2827 H       
 372 H372          11.9397   -10.1907     4.2896 H       
 373 H373          11.4269   -10.6872     5.9201 H       
 374 H374          10.6163    -8.3866     6.3658 H       
 375 H375          11.1291    -7.8901     4.7352 H       
 376 H376           9.5856    -9.5575     3.7421 H       
 377 H377           9.0729   -10.0540     5.3727 H       
 378 H378           8.2622    -7.7534     5.8183 H       
 379 H379           8.7750    -7.2568     4.1877 H       
 380 H380           7.2315    -8.9242     3.1946 H       
 381 H381           6.7188    -9.4208     4.8252 H       
 382 H382           5.9081    -7.1201     5.2709 H       
 383 H383           6.4209    -6.6236     3.6403 H       
 384 H384           4.8775    -8.2910     2.6472 H       
 385 H385           4.3647    -8.7875     4.2778 H       
 386 H386           3.5540    -6.4869     4.7234 H       
 387 H387           4.0668    -5.9904     3.0928 H       
 388 H388           2.5234    -7.6578     2.0997 H       
 389 H389           2.0106    -8.1543     3.7303 H       
 390 H390           1.2000    -5.8537     4.1759 H       
 391 H391           1.7127    -5.3571     2.5454 H       
 392 H392          -0.3435    -7.5211     3.1829 H       
 393 H393           0.1693    -7.0245     1.5523 H       
@<TRIPOS>BOND
   1    1    2 2
   2    1    4 1
   3    1   13 am
   4    3  167 am
   5    3    4 1
   6    3  184 1
   7    4    5 1
   8    4  185 1
   9    5    6 1
  10    5  186 1
  11    5  187 1
  12    6    7 2
  13    6   10 1
  14    7    8 1
  15    7  188 1
  16    8    9 1
  17    8  189 1
  18    9   10 2
  19    9  190 1
  20   11   12 2
  21   11   14 1
  22   11   24 am
  23   13   14 1
  24   13  191 1
  25   14   15 1
  26   14  192 1
  27   15   16 1
  28   15  193 1
  29   15  194 1
  30   16   17 ar
  31   16   21 ar
  32   17   18 ar
  33   17  195 1
  34   18   19 ar
  35   18  196 1
  36   19   20 ar
  37   19  197 1
  38   20   21 ar
  39   20  198 1
  40   21  199 1
  41   22   23 2
  42   22   25 1
  43   22   35 am
  44   24   25 1
  45   24  200 1
  46   25   26 1
  47   25  201 1
  48   26   27 1
  49   26  202 1
  50   26  203 1
  51   27   28 1
  52   27  204 1
  53   27  205 1
  54   28   29 1
  55   28  206 1
  56   28  207 1
  57   29   30 1
  58   29  208 1
  59   30   31 2
  60   30   32 1
  61   31  209 1
  62   32  210 1
  63   32  211 1
  64   33   34 2
  65   33   36 1
  66   33   44 am
  67   35   36 1
  68   35  212 1
  69   36   37 1
  70   36  213 1
  71   37   38 1
  72   37  214 1
  73   37  215 1
  74   38   39 1
  75   38  216 1
  76   38  217 1
  77   39   40 1
  78   39  218 1
  79   39  219 1
  80   40   41 1
  81   40  220 1
  82   40  221 1
  83   41  222 1
  84   41  223 1
  85   42   43 2
  86   42   45 1
  87   42   53 am
  88   44   45 1
  89   44  224 1
  90   45   46 1
  91   45  225 1
  92   46   47 1
  93   46  226 1
  94   46  227 1
  95   47   48 1
  96   47  228 1
  97   47  229 1
  98   48   49 2
  99   48   50 1
 100   50  230 1
 101   51   52 2
 102   51   54 1
 103   51   64 am
 104   53   54 1
 105   53  231 1
 106   54   55 1
 107   54  232 1
 108   55   56 1
 109   55  233 1
 110   55  234 1
 111   56   57 1
 112   56  235 1
 113   56  236 1
 114   57   58 1
 115   57  237 1
 116   57  238 1
 117   58   59 1
 118   58  239 1
 119   59   60 2
 120   59   61 1
 121   60  240 1
 122   61  241 1
 123   61  242 1
 124   62   63 2
 125   62   65 1
 126   62   72 am
 127   64   65 1
 128   64  243 1
 129   65   66 1
 130   65  244 1
 131   66   67 1
 132   66   69 1
 133   66  245 1
 134   67   68 1
 135   67  246 1
 136   67  247 1
 137   68  248 1
 138   68  249 1
 139   68  250 1
 140   69  251 1
 141   69  252 1
 142   69  253 1
 143   70   71 2
 144   70   73 1
 145   70   81 am
 146   72   73 1
 147   72  254 1
 148   73   74 1
 149   73  255 1
 150   74   75 1
 151   74  256 1
 152   74  257 1
 153   75   76 1
 154   75  258 1
 155   75  259 1
 156   76   77 2
 157   76   78 1
 158   78  260 1
 159   79   80 2
 160   79   82 1
 161   79   85 am
 162   81   82 1
 163   81  261 1
 164   82  262 1
 165   82  263 1
 166   83   84 2
 167   83   86 1
 168   83   93 am
 169   85   86 1
 170   85  264 1
 171   86   87 1
 172   86  265 1
 173   87   88 1
 174   87  266 1
 175   87  267 1
 176   88   89 1
 177   88   90 1
 178   88  268 1
 179   89  269 1
 180   89  270 1
 181   89  271 1
 182   90  272 1
 183   90  273 1
 184   90  274 1
 185   91   92 2
 186   91   94 1
 187   91  104 am
 188   93   94 1
 189   93  275 1
 190   94   95 1
 191   94  276 1
 192   95   96 1
 193   95  277 1
 194   95  278 1
 195   96   97 1
 196   96  279 1
 197   96  280 1
 198   97   98 1
 199   97  281 1
 200   97  282 1
 201   98   99 1
 202   98  283 1
 203   99  100 2
 204   99  101 1
 205  100  284 1
 206  101  285 1
 207  101  286 1
 208  102  103 2
 209  102  105 1
 210  102  113 am
 211  104  105 1
 212  104  287 1
 213  105  106 1
 214  105  288 1
 215  106  107 1
 216  106  289 1
 217  106  290 1
 218  107  108 1
 219  107  291 1
 220  107  292 1
 221  108  109 1
 222  108  293 1
 223  108  294 1
 224  109  110 1
 225  109  295 1
 226  109  296 1
 227  110  297 1
 228  110  298 1
 229  111  112 2
 230  111  114 1
 231  111  124 am
 232  113  114 1
 233  113  299 1
 234  114  115 1
 235  114  300 1
 236  115  116 1
 237  115  301 1
 238  115  302 1
 239  116  117 1
 240  116  303 1
 241  116  304 1
 242  117  118 1
 243  117  305 1
 244  117  306 1
 245  118  119 1
 246  118  307 1
 247  119  120 2
 248  119  121 1
 249  120  308 1
 250  121  309 1
 251  121  310 1
 252  122  123 2
 253  122  125 1
 254  122  135 am
 255  124  125 1
 256  124  311 1
 257  125  126 1
 258  125  312 1
 259  126  127 1
 260  126  313 1
 261  126  314 1
 262  127  128 1
 263  127  315 1
 264  127  316 1
 265  128  129 1
 266  128  317 1
 267  128  318 1
 268  129  130 1
 269  129  319 1
 270  130  131 2
 271  130  132 1
 272  131  320 1
 273  132  321 1
 274  132  322 1
 275  133  134 2
 276  133  136 1
 277  133  146 am
 278  135  136 1
 279  135  323 1
 280  136  137 1
 281  136  324 1
 282  137  138 1
 283  137  325 1
 284  137  326 1
 285  138  139 1
 286  138  327 1
 287  138  328 1
 288  139  140 1
 289  139  329 1
 290  139  330 1
 291  140  141 1
 292  140  331 1
 293  141  142 2
 294  141  143 1
 295  142  332 1
 296  143  333 1
 297  143  334 1
 298  144  145 2
 299  144  147 1
 300  144  154 am
 301  146  147 1
 302  146  335 1
 303  147  148 1
 304  147  336 1
 305  148  149 1
 306  148  337 1
 307  148  338 1
 308  149  150 1
 309  149  151 1
 310  149  339 1
 311  150  340 1
 312  150  341 1
 313  150  342 1
 314  151  343 1
 315  151  344 1
 316  151  345 1
 317  152  153 2
 318  152  155 1
 319  152  162 am
 320  154  155 1
 321  154  346 1
 322  155  156 1
 323  155  347 1
 324  156  157 1
 325  156  348 1
 326  156  349 1
 327  157  158 1
 328  157  159 1
 329  157  350 1
 330  158  351 1
 331  158  352 1
 332  158  353 1
 333  159  354 1
 334  159  355 1
 335  159  356 1
 336  160  161 2
 337  160  163 1
 338  160  166 1
 339  162  163 1
 340  162  357 1
 341  163  164 1
 342  163  358 1
 343  164  165 1
 344  164  359 1
 345  164  360 1
 346  165  361 1
 347  166  362 1
 348  167  168 2
 349  167  183 1
 350  169  170 1
 351  169  363 1
 352  169  364 1
 353  169  365 1
 354  170  171 1
 355  170  366 1
 356  170  367 1
 357  171  172 1
 358  171  368 1
 359  171  369 1
 360  172  173 1
 361  172  370 1
 362  172  371 1
 363  173  174 1
 364  173  372 1
 365  173  373 1
 366  174  175 1
 367  174  374 1
 368  174  375 1
 369  175  176 1
 370  175  376 1
 371  175  377 1
 372  176  177 1
 373  176  378 1
 374  176  379 1
 375  177  178 1
 376  177  380 1
 377  177  381 1
 378  178  179 1
 379  178  382 1
 380  178  383 1
 381  179  180 1
 382  179  384 1
 383  179  385 1
 384  180  181 1
 385  180  386 1
 386  180  387 1
 387  181  182 1
 388  181  388 1
 389  181  389 1
 390  182  183 1
 391  182  390 1
 392  182  391 1
 393  183  392 1
 394  183  393 1

#	End of record

