#	Name: ASD03240655
#	Creating user name:	WinNT
#	Creation time:	15. 06. 2019 20:35

#	Modifying user name:	WinNT
#	Modification time:	15. 06. 2019 20:35

#	Program:	/corina/corina34_cracker 3.40 0067  02.08.2006

@<TRIPOS>MOLECULE
ASD03240655
  60   66    0    0    0
SMALL
NO_CHARGES


@<TRIPOS>ATOM
   1 C1             0.0464     1.1673    -0.2558 C.ar    
   2 C2             0.1301    -0.2075    -0.3365 C.ar    
   3 N3             1.2996    -0.8186    -0.3307 N.ar    
   4 C4             2.4405    -0.1477    -0.2469 C.ar    
   5 C5             2.4310     1.2439    -0.1765 C.ar    
   6 C6             1.2145     1.9140    -0.1745 C.ar    
   7 N7             3.6402    -0.8529    -0.2094 N.pl3   
   8 C8             4.4680    -0.7869     0.9080 C.ar    
   9 C9             5.0335     0.4302     1.3031 C.ar    
  10 C10            4.7800     1.6578     0.5173 C.2     
  11 N11            3.6218     1.9824    -0.1259 N.pl3   
  12 C12            4.7348    -1.9360     1.6402 C.ar    
  13 C13            5.5457    -1.8720     2.7572 C.ar    
  14 C14            6.0961    -0.6661     3.1561 C.ar    
  15 C15            5.8449     0.4844     2.4361 C.ar    
  16 N16            5.6579     2.6225     0.3286 N.2     
  17 C17            5.1160     3.5856    -0.4324 C.2     
  18 C18            3.8224     3.2040    -0.7373 C.2     
  19 C19            2.8488     3.9537    -1.5544 C.ar    
  20 C20            2.6794     5.3267    -1.3597 C.ar    
  21 C21            2.0966     3.2947    -2.5297 C.ar    
  22 C22            1.1878     4.0007    -3.2905 C.ar    
  23 C23            1.0195     5.3589    -3.0902 C.ar    
  24 C24            1.7661     6.0217    -2.1283 C.ar    
  25 C25            5.7842     4.8341    -0.8679 C.ar    
  26 C26            0.0247     6.1228    -3.9255 C.3     
  27 C27            6.6908     5.4739    -0.0229 C.ar    
  28 N28           -1.2136     6.4312    -3.1979 N.3     
  29 C29            0.6316     7.3357    -4.6505 C.3     
  30 C30           -0.2360     6.9479    -5.8595 C.3     
  31 C31           -0.2120     5.5096    -5.3158 C.3     
  32 C32            7.3108     6.6359    -0.4332 C.ar    
  33 C33            7.0340     7.1676    -1.6825 C.ar    
  34 C34            6.1341     6.5358    -2.5256 C.ar    
  35 C35            5.5130     5.3704    -2.1265 C.ar    
  36 F36            7.6434     8.3061    -2.0796 F       
  37 F37            1.5960     7.3484    -1.9385 F       
  38 H38           -0.9160     1.6572    -0.2604 H       
  39 H39           -0.7752    -0.7923    -0.4051 H       
  40 H40            1.1777     2.9915    -0.1115 H       
  41 H41            3.9021    -1.3955    -0.9696 H       
  42 H42            4.3085    -2.8807     1.3363 H       
  43 H43            5.7513    -2.7687     3.3230 H       
  44 H44            6.7244    -0.6254     4.0336 H       
  45 H45            6.2753     1.4241     2.7494 H       
  46 H46            3.2606     5.8431    -0.6102 H       
  47 H47            2.2265     2.2343    -2.6881 H       
  48 H48            0.6064     3.4915    -4.0449 H       
  49 H49            6.9069     5.0604     0.9511 H       
  50 H50           -1.5904     5.6046    -2.7587 H       
  51 H51           -1.0621     7.1635    -2.5204 H       
  52 H52            0.3577     8.2923    -4.2055 H       
  53 H53            1.7021     7.2440    -4.8339 H       
  54 H54           -1.2269     7.4019    -5.8495 H       
  55 H55            0.2731     7.0614    -6.8166 H       
  56 H56            0.6279     4.9187    -5.6811 H       
  57 H57           -1.1668     4.9920    -5.4079 H       
  58 H58            8.0127     7.1322     0.2206 H       
  59 H59            5.9217     6.9541    -3.4983 H       
  60 H60            4.8117     4.8786    -2.7844 H       
@<TRIPOS>BOND
   1    1    2 ar
   2    1    6 ar
   3    1   38 1
   4    2    3 ar
   5    2   39 1
   6    3    4 ar
   7    4    5 ar
   8    4    7 1
   9    5    6 ar
  10    5   11 1
  11    6   40 1
  12    7    8 1
  13    7   41 1
  14    8    9 ar
  15    8   12 ar
  16    9   10 1
  17    9   15 ar
  18   10   11 1
  19   10   16 2
  20   11   18 1
  21   12   13 ar
  22   12   42 1
  23   13   14 ar
  24   13   43 1
  25   14   15 ar
  26   14   44 1
  27   15   45 1
  28   16   17 1
  29   17   18 2
  30   17   25 1
  31   18   19 1
  32   19   20 ar
  33   19   21 ar
  34   20   24 ar
  35   20   46 1
  36   21   22 ar
  37   21   47 1
  38   22   23 ar
  39   22   48 1
  40   23   24 ar
  41   23   26 1
  42   24   37 1
  43   25   27 ar
  44   25   35 ar
  45   26   29 1
  46   26   28 1
  47   26   31 1
  48   27   32 ar
  49   27   49 1
  50   28   50 1
  51   28   51 1
  52   29   30 1
  53   29   52 1
  54   29   53 1
  55   30   31 1
  56   30   54 1
  57   30   55 1
  58   31   56 1
  59   31   57 1
  60   32   33 ar
  61   32   58 1
  62   33   34 ar
  63   33   36 1
  64   34   35 ar
  65   34   59 1
  66   35   60 1

#	End of record

