#	Name: ASD02408464
#	Creating user name:	WinNT
#	Creation time:	15. 06. 2019 20:21

#	Modifying user name:	WinNT
#	Modification time:	15. 06. 2019 20:21

#	Program:	/corina/corina34_cracker 3.40 0067  02.08.2006

@<TRIPOS>MOLECULE
ASD02408464
  47   50    0    0    0
SMALL
NO_CHARGES


@<TRIPOS>ATOM
   1 C1            -0.1214     1.3065    -0.4207 C.2     
   2 C2            -0.0704    -0.0811    -0.2142 C.2     
   3 N3            -1.3492    -0.4898    -0.0081 N.pl3   
   4 N4            -2.1869     0.6299    -0.0853 N.2     
   5 C5            -1.4720     1.6925    -0.3333 C.2     
   6 C6            -1.7788    -1.8664     0.2499 C.3     
   7 C7            -2.4815    -1.9520     1.6162 C.3     
   8 C8            -3.9197    -2.4381     1.3424 C.3     
   9 C9            -3.8188    -3.1776    -0.0148 C.3     
  10 C10           -2.8146    -2.3036    -0.8064 C.3     
  11 C11            1.1350     2.0129    -0.6703 C.2     
  12 N12            2.2724     1.2790    -0.6861 N.am    
  13 N13            1.1175    -0.7050    -0.2522 N.2     
  14 O14            1.1569     3.2165    -0.8573 O.2     
  15 C15            2.2251    -0.0606    -0.4759 C.2     
  16 C16            3.5158    -0.8381    -0.5029 C.3     
  17 C17            3.2254    -2.3178    -0.2437 C.3     
  18 C18            4.5160    -3.0952    -0.2707 C.2     
  19 O19            5.5650    -2.5222    -0.4769 O.2     
  20 N20            4.5048    -4.4273    -0.0657 N.am    
  21 C21            5.6883    -5.1638    -0.1870 C.ar    
  22 C22            6.8975    -4.6082     0.2100 C.ar    
  23 C23            8.0639    -5.3378     0.0888 C.ar    
  24 C24            8.0286    -6.6201    -0.4275 C.ar    
  25 C25            6.8262    -7.1761    -0.8241 C.ar    
  26 C26            5.6553    -6.4541    -0.6994 C.ar    
  27 H27           -1.8509     2.6976    -0.4457 H       
  28 H28           -0.9187    -2.5357     0.2298 H       
  29 H29           -1.9628    -2.6634     2.2589 H       
  30 H30           -2.5028    -0.9693     2.0873 H       
  31 H31           -4.2470    -3.1217     2.1259 H       
  32 H32           -4.6007    -1.5906     1.2654 H       
  33 H33           -3.4285    -4.1860     0.1228 H       
  34 H34           -4.7873    -3.2019    -0.5144 H       
  35 H35           -3.3171    -1.4342    -1.2305 H       
  36 H36           -2.3354    -2.8889    -1.5912 H       
  37 H37            3.1247     1.7126    -0.8488 H       
  38 H38            3.9872    -0.7259    -1.4792 H       
  39 H39            4.1848    -0.4585     0.2694 H       
  40 H40            2.7540    -2.4299     0.7327 H       
  41 H41            2.5563    -2.6974    -1.0160 H       
  42 H42            3.6762    -4.8753     0.1660 H       
  43 H43            6.9258    -3.6065     0.6127 H       
  44 H44            9.0046    -4.9063     0.3974 H       
  45 H45            8.9421    -7.1885    -0.5215 H       
  46 H46            6.8020    -8.1776    -1.2277 H       
  47 H47            4.7165    -6.8890    -1.0090 H       
@<TRIPOS>BOND
   1    1    2 2
   2    1   11 1
   3    1    5 1
   4    2    3 1
   5    2   13 1
   6    3    4 1
   7    3    6 1
   8    4    5 2
   9    5   27 1
  10    6    7 1
  11    6   10 1
  12    6   28 1
  13    7    8 1
  14    7   29 1
  15    7   30 1
  16    8    9 1
  17    8   31 1
  18    8   32 1
  19    9   10 1
  20    9   33 1
  21    9   34 1
  22   10   35 1
  23   10   36 1
  24   11   12 am
  25   11   14 2
  26   12   15 1
  27   12   37 1
  28   13   15 2
  29   15   16 1
  30   16   17 1
  31   16   38 1
  32   16   39 1
  33   17   18 1
  34   17   40 1
  35   17   41 1
  36   18   19 2
  37   18   20 am
  38   20   21 1
  39   20   42 1
  40   21   22 ar
  41   21   26 ar
  42   22   23 ar
  43   22   43 1
  44   23   24 ar
  45   23   44 1
  46   24   25 ar
  47   24   45 1
  48   25   26 ar
  49   25   46 1
  50   26   47 1

#	End of record

