#	Name: ASD01901327
#	Creating user name:	WinNT
#	Creation time:	15. 06. 2019 19:53

#	Modifying user name:	WinNT
#	Modification time:	15. 06. 2019 19:53

#	Program:	/corina/corina34_cracker 3.40 0067  02.08.2006

@<TRIPOS>MOLECULE
ASD01901327
  42   45    0    0    0
SMALL
NO_CHARGES


@<TRIPOS>ATOM
   1 C1            -0.0167     1.3807     0.0096 C.ar    
   2 C2             0.0021    -0.0041     0.0020 C.ar    
   3 C3             1.2089    -0.6806    -0.0127 C.ar    
   4 C4             2.4023     0.0213    -0.0198 C.ar    
   5 C5             2.3965     1.4018    -0.0124 C.ar    
   6 C6             1.1872     2.0917     0.0020 C.ar    
   7 C7             1.1762     3.5755     0.0095 C.2     
   8 N8             0.8636     5.5937     1.1945 N.2     
   9 C9             0.8726     4.2832     1.1930 C.2     
  10 C10            1.4653     4.2766    -1.1277 C.2     
  11 N11            1.4461     5.6396    -1.0860 N.pl3   
  12 C12            1.1408     6.2899     0.0818 C.2     
  13 C13            1.6845     6.5990    -2.0328 C.2     
  14 C14            1.5223     7.7974    -1.4328 C.2     
  15 N15            1.1927     7.5933    -0.1540 N.2     
  16 C16            1.6854     9.1413    -2.0948 C.3     
  17 O17            2.0409     8.9565    -3.4665 O.3     
  18 C18            2.2269    10.0774    -4.2121 C.ar    
  19 C19            2.0759    11.3295    -3.6339 C.ar    
  20 C20            2.5736     9.9716    -5.5512 C.ar    
  21 C21            2.7620    11.1126    -6.3069 C.ar    
  22 C22            2.6059    12.3592    -5.7296 C.ar    
  23 C23            2.2655    12.4674    -4.3939 C.ar    
  24 Cl24           1.2269    -2.4164    -0.0216 Cl      
  25 O25           -1.2012     2.0462     0.0189 O.3     
  26 C26           -2.3905     1.2540     0.0202 C.3     
  27 H27           -0.9260    -0.5563     0.0079 H       
  28 H28            3.3408    -0.5130    -0.0310 H       
  29 H29            3.3293     1.9461    -0.0176 H       
  30 H30            0.6465     3.7425     2.1002 H       
  31 H31            1.7055     3.7593    -2.0448 H       
  32 H32            1.9522     6.4292    -3.0652 H       
  33 H33            0.7471     9.6927    -2.0338 H       
  34 H34            2.4704     9.7029    -1.5885 H       
  35 H35            1.8101    11.4145    -2.5906 H       
  36 H36            2.6964     8.9981    -6.0024 H       
  37 H37            3.0319    11.0307    -7.3494 H       
  38 H38            2.7540    13.2500    -6.3221 H       
  39 H39            2.1481    13.4423    -3.9442 H       
  40 H40           -2.4122     0.6298    -0.8731 H       
  41 H41           -2.4038     0.6201     0.9068 H       
  42 H42           -3.2626     1.9078     0.0278 H       
@<TRIPOS>BOND
   1    1    2 ar
   2    1    6 ar
   3    1   25 1
   4    2    3 ar
   5    2   27 1
   6    3    4 ar
   7    3   24 1
   8    4    5 ar
   9    4   28 1
  10    5    6 ar
  11    5   29 1
  12    6    7 1
  13    7   10 2
  14    7    9 1
  15    8    9 2
  16    8   12 1
  17    9   30 1
  18   10   11 1
  19   10   31 1
  20   11   13 1
  21   11   12 1
  22   12   15 2
  23   13   14 2
  24   13   32 1
  25   14   15 1
  26   14   16 1
  27   16   17 1
  28   16   33 1
  29   16   34 1
  30   17   18 1
  31   18   20 ar
  32   18   19 ar
  33   19   23 ar
  34   19   35 1
  35   20   21 ar
  36   20   36 1
  37   21   22 ar
  38   21   37 1
  39   22   23 ar
  40   22   38 1
  41   23   39 1
  42   25   26 1
  43   26   40 1
  44   26   41 1
  45   26   42 1

#	End of record

