#	Name: ASD01940498
#	Creating user name:	WinNT
#	Creation time:	15. 06. 2019 20:12

#	Modifying user name:	WinNT
#	Modification time:	15. 06. 2019 20:12

#	Program:	/corina/corina34_cracker 3.40 0067  02.08.2006

@<TRIPOS>MOLECULE
ASD01940498
  48   50    0    0    0
SMALL
NO_CHARGES


@<TRIPOS>ATOM
   1 N1             1.4663     2.5110    -2.4566 N.am    
   2 N2             1.9810     1.4852    -3.2561 N.2     
   3 C3             2.7850     0.7352    -2.5596 C.2     
   4 C4             2.8330     1.2675    -1.2008 C.ar    
   5 C5             3.5129     0.8879    -0.0317 C.ar    
   6 C6             3.3397     1.6248     1.1298 C.ar    
   7 C7             2.4954     2.7361     1.1372 C.ar    
   8 C8             1.8226     3.1152    -0.0097 C.ar    
   9 C9             1.9841     2.3889    -1.1839 C.ar    
  10 C10            0.6083     3.4668    -2.8649 C.2     
  11 O11            0.2246     4.3129    -2.0825 O.2     
  12 O12            0.1765     3.4837    -4.1397 O.3     
  13 O13            2.3328     3.4517     2.2818 O.3     
  14 C14            1.4552     4.5780     2.2237 C.3     
  15 N15            4.3577    -0.2250    -0.0393 N.pl3   
  16 C16            3.8764    -1.4710     0.3744 C.ar    
  17 C17            4.6809    -2.6010     0.2641 C.ar    
  18 C18            4.2012    -3.8308     0.6742 C.ar    
  19 C19            2.9230    -3.9379     1.1936 C.ar    
  20 C20            2.1217    -2.8161     1.3036 C.ar    
  21 C21            2.5969    -1.5826     0.9014 C.ar    
  22 I22            2.1998    -5.8037     1.8139 I       
  23 F23            5.9286    -2.4964    -0.2434 F       
  24 N24            4.0162     1.2512     2.3039 N.pl3   
  25 C25           -0.7464     4.5421    -4.5092 C.3     
  26 C26           -0.0811     5.9011    -4.2824 C.3     
  27 C27           -1.1227     4.3984    -5.9852 C.3     
  28 C28           -2.0079     4.4419    -3.6492 C.3     
  29 H29            3.3217    -0.1288    -2.9226 H       
  30 H30            1.1713     3.9765     0.0066 H       
  31 H31            1.8244     5.2885     1.4841 H       
  32 H32            0.4561     4.2459     1.9414 H       
  33 H33            1.4156     5.0587     3.2012 H       
  34 H34            5.2781    -0.1332    -0.3315 H       
  35 H35            4.8243    -4.7089     0.5889 H       
  36 H36            1.1245    -2.9036     1.7091 H       
  37 H37            1.9718    -0.7066     0.9928 H       
  38 H38            4.5411     0.4357     2.3226 H       
  39 H39            3.9582     1.8088     3.0955 H       
  40 H40            0.8176     5.9724    -4.8950 H       
  41 H41           -0.7739     6.6956    -4.5597 H       
  42 H42            0.1870     6.0034    -3.2308 H       
  43 H43           -1.5966     3.4303    -6.1468 H       
  44 H44           -1.8155     5.1929    -6.2625 H       
  45 H45           -0.2240     4.4698    -6.5979 H       
  46 H46           -1.7398     4.5443    -2.5977 H       
  47 H47           -2.7007     5.2364    -3.9265 H       
  48 H48           -2.4818     3.4738    -3.8108 H       
@<TRIPOS>BOND
   1    1    2 1
   2    1    9 1
   3    1   10 am
   4    2    3 2
   5    3    4 1
   6    3   29 1
   7    4    5 ar
   8    4    9 ar
   9    5    6 ar
  10    5   15 1
  11    6    7 ar
  12    6   24 1
  13    7    8 ar
  14    7   13 1
  15    8    9 ar
  16    8   30 1
  17   10   11 2
  18   10   12 1
  19   12   25 1
  20   13   14 1
  21   14   31 1
  22   14   32 1
  23   14   33 1
  24   15   16 1
  25   15   34 1
  26   16   17 ar
  27   16   21 ar
  28   17   18 ar
  29   17   23 1
  30   18   19 ar
  31   18   35 1
  32   19   20 ar
  33   19   22 1
  34   20   21 ar
  35   20   36 1
  36   21   37 1
  37   24   38 1
  38   24   39 1
  39   25   26 1
  40   25   28 1
  41   25   27 1
  42   26   40 1
  43   26   41 1
  44   26   42 1
  45   27   43 1
  46   27   44 1
  47   27   45 1
  48   28   46 1
  49   28   47 1
  50   28   48 1

#	End of record

