#	Name: ASD01910672
#	Creating user name:	WinNT
#	Creation time:	15. 06. 2019 19:56

#	Modifying user name:	WinNT
#	Modification time:	15. 06. 2019 19:56

#	Program:	/corina/corina34_cracker 3.40 0067  02.08.2006

@<TRIPOS>MOLECULE
ASD01910672
  29   31    0    0    0
SMALL
NO_CHARGES


@<TRIPOS>ATOM
   1 C1            -0.0167     1.3797     0.0096 C.ar    
   2 C2             0.0021    -0.0041     0.0020 C.ar    
   3 C3             1.2058    -0.6866    -0.0127 C.ar    
   4 C4             2.3967     0.0088    -0.0198 C.ar    
   5 C5             2.3858     1.4064    -0.0127 C.ar    
   6 C6             1.1661     2.0888     0.0021 C.ar    
   7 C7             3.6182     2.1357    -0.0195 C.1     
   8 C8             4.6285     2.7335    -0.0252 C.1     
   9 C9             5.8609     3.4628    -0.0321 C.ar    
  10 C10            5.8479     4.8630    -0.0249 C.ar    
  11 C11            7.0231     5.5515    -0.0310 C.ar    
  12 C12            8.2453     4.8703    -0.0444 C.ar    
  13 C13            8.2573     3.4713    -0.0519 C.ar    
  14 C14            7.0813     2.7777    -0.0401 C.ar    
  15 C15            7.3558     7.0230    -0.0255 C.3     
  16 N16            8.8203     7.1121    -0.0365 N.am    
  17 C17            9.3297     5.8685    -0.0475 C.2     
  18 O18           10.5164     5.6044    -0.0583 O.2     
  19 H19           -0.9600     1.9055     0.0169 H       
  20 H20           -0.9274    -0.5541     0.0079 H       
  21 H21            1.2127    -1.7666    -0.0182 H       
  22 H22            3.3354    -0.5251    -0.0306 H       
  23 H23            1.1499     3.1687     0.0074 H       
  24 H24            4.9085     5.3957    -0.0149 H       
  25 H25            9.1973     2.9397    -0.0626 H       
  26 H26            7.0928     1.6977    -0.0455 H       
  27 H27            6.9445     7.5035    -0.9132 H       
  28 H28            6.9586     7.4936     0.8739 H       
  29 H29            9.3361     7.9336    -0.0361 H       
@<TRIPOS>BOND
   1    1    2 ar
   2    1    6 ar
   3    1   19 1
   4    2    3 ar
   5    2   20 1
   6    3    4 ar
   7    3   21 1
   8    4    5 ar
   9    4   22 1
  10    5    6 ar
  11    5    7 1
  12    6   23 1
  13    7    8 3
  14    8    9 1
  15    9   10 ar
  16    9   14 ar
  17   10   11 ar
  18   10   24 1
  19   11   12 ar
  20   11   15 1
  21   12   13 ar
  22   12   17 1
  23   13   14 ar
  24   13   25 1
  25   14   26 1
  26   15   16 1
  27   15   27 1
  28   15   28 1
  29   16   17 am
  30   16   29 1
  31   17   18 2

#	End of record

