#	Name: ASD01911632
#	Creating user name:	WinNT
#	Creation time:	15. 06. 2019 19:58

#	Modifying user name:	WinNT
#	Modification time:	15. 06. 2019 19:58

#	Program:	/corina/corina34_cracker 3.40 0067  02.08.2006

@<TRIPOS>MOLECULE
ASD01911632
  37   39    0    0    0
SMALL
NO_CHARGES


@<TRIPOS>ATOM
   1 O1             0.0026    -0.0037    -0.0004 O.2     
   2 C2            -0.0143     1.2135     0.0042 C.2     
   3 C3             1.2438     1.9634    -0.0113 C.2     
   4 C4             2.5021     1.4241    -0.0313 C.2     
   5 S5             1.4036     3.7187    -0.0150 S.3     
   6 C6             3.1573     3.5574    -0.0364 C.2     
   7 N7             3.4779     2.2873    -0.0430 N.2     
   8 C8             4.0881     4.6455    -0.0490 C.1     
   9 C9             4.8512     5.5377    -0.0593 C.1     
  10 C10            5.7820     6.6258    -0.0719 C.ar    
  11 C11            7.1572     6.3740    -0.0885 C.ar    
  12 C12            7.5824     8.7307    -0.0968 C.ar    
  13 C13            6.2226     8.9881    -0.0861 C.ar    
  14 C14            5.3201     7.9456    -0.0735 C.ar    
  15 N15           -1.1907     1.8710     0.0179 N.am    
  16 C16            8.0473     7.4272    -0.1010 C.ar    
  17 C17           -2.3902     1.1601    -0.0859 C.ar    
  18 C18           -3.5181     1.5942     0.5992 C.ar    
  19 C19           -4.7012     0.8898     0.4946 C.ar    
  20 C20           -4.7640    -0.2468    -0.2910 C.ar    
  21 C21           -3.6431    -0.6817    -0.9738 C.ar    
  22 C22           -2.4582     0.0217    -0.8784 C.ar    
  23 C23           -5.9251     1.3597     1.2378 C.3     
  24 H24            2.6737     0.3578    -0.0367 H       
  25 H25            7.5215     5.3573    -0.0911 H       
  26 H26            8.2844     9.5514    -0.1070 H       
  27 H27            5.8675    10.0080    -0.0829 H       
  28 H28            4.2593     8.1479    -0.0652 H       
  29 H29           -1.2051     2.8375     0.0997 H       
  30 H30            9.1098     7.2343    -0.1139 H       
  31 H31           -3.4697     2.4814     1.2131 H       
  32 H32           -5.6905    -0.7959    -0.3711 H       
  33 H33           -3.6954    -1.5698    -1.5861 H       
  34 H34           -1.5830    -0.3186    -1.4119 H       
  35 H35           -6.4906     2.0470     0.6086 H       
  36 H36           -6.5484     0.5019     1.4903 H       
  37 H37           -5.6216     1.8699     2.1519 H       
@<TRIPOS>BOND
   1    1    2 2
   2    2    3 1
   3    2   15 am
   4    3    4 2
   5    3    5 1
   6    4    7 1
   7    4   24 1
   8    5    6 1
   9    6    7 2
  10    6    8 1
  11    8    9 3
  12    9   10 1
  13   10   11 ar
  14   10   14 ar
  15   11   16 ar
  16   11   25 1
  17   12   13 ar
  18   12   16 ar
  19   12   26 1
  20   13   14 ar
  21   13   27 1
  22   14   28 1
  23   15   17 1
  24   15   29 1
  25   16   30 1
  26   17   18 ar
  27   17   22 ar
  28   18   19 ar
  29   18   31 1
  30   19   20 ar
  31   19   23 1
  32   20   21 ar
  33   20   32 1
  34   21   22 ar
  35   21   33 1
  36   22   34 1
  37   23   35 1
  38   23   36 1
  39   23   37 1

#	End of record

