#	Name: ASD05213022
#	Creating user name:	WinNT
#	Creation time:	15. 06. 2019 20:57

#	Modifying user name:	WinNT
#	Modification time:	15. 06. 2019 20:57

#	Program:	/corina/corina34_cracker 3.40 0067  02.08.2006

@<TRIPOS>MOLECULE
ASD05213022
  28   30    0    0    0
SMALL
NO_CHARGES


@<TRIPOS>ATOM
   1 S1            -0.0218     1.7577     0.0117 S.3     
   2 C2             0.0021    -0.0041     0.0020 C.2     
   3 C3             1.7090     2.0873    -0.0030 C.2     
   4 N4             2.6491     1.1747    -0.0174 N.2     
   5 C5             3.8680     1.7744    -0.0256 C.ar    
   6 C6             3.6472     3.1614    -0.0155 C.ar    
   7 N7             2.2710     3.3324    -0.0072 N.pl3   
   8 C8             5.1770     1.2854    -0.0411 C.ar    
   9 C9             6.2383     2.1692    -0.0462 C.ar    
  10 C10            6.0111     3.5420    -0.0360 C.ar    
  11 C11            4.7233     4.0358    -0.0208 C.ar    
  12 S12           -1.3858    -1.0024     0.0099 S.3     
  13 C13           -0.3659    -2.4388    -0.0087 C.2     
  14 C14            0.9077    -2.0421    -0.0190 C.2     
  15 N15            1.0751    -0.7325    -0.0178 N.2     
  16 N16           -0.8403    -3.8434    -0.0115 N.pl3   
  17 O17           -0.0359    -4.7578    -0.0245 O.2     
  18 O18           -2.0345    -4.0828    -0.0008 O.2     
  19 O19            7.5127     1.6952    -0.0607 O.3     
  20 C20            8.5647     2.6623    -0.0653 C.3     
  21 H21            1.7961     4.1782     0.0008 H       
  22 H22            5.3580     0.2208    -0.0486 H       
  23 H23            6.8479     4.2247    -0.0397 H       
  24 H24            4.5533     5.1023    -0.0133 H       
  25 H25            1.7351    -2.7362    -0.0309 H       
  26 H26            9.5276     2.1517    -0.0771 H       
  27 H27            8.4761     3.2914    -0.9510 H       
  28 H28            8.4928     3.2816     0.8289 H       
@<TRIPOS>BOND
   1    1    2 1
   2    1    3 1
   3    2   12 1
   4    2   15 2
   5    3    4 2
   6    3    7 1
   7    4    5 1
   8    5    6 ar
   9    5    8 ar
  10    6    7 1
  11    6   11 ar
  12    7   21 1
  13    8    9 ar
  14    8   22 1
  15    9   10 ar
  16    9   19 1
  17   10   11 ar
  18   10   23 1
  19   11   24 1
  20   12   13 1
  21   13   14 2
  22   13   16 1
  23   14   15 1
  24   14   25 1
  25   16   17 2
  26   16   18 2
  27   19   20 1
  28   20   26 1
  29   20   27 1
  30   20   28 1

#	End of record

