#	Name: ASD01148644
#	Creating user name:	WinNT
#	Creation time:	15. 06. 2019 19:02

#	Modifying user name:	WinNT
#	Modification time:	15. 06. 2019 19:02

#	Program:	/corina/corina34_cracker 3.40 0067  02.08.2006

@<TRIPOS>MOLECULE
ASD01148644
  57   61    0    0    0
SMALL
NO_CHARGES


@<TRIPOS>ATOM
   1 C1            -0.0169     1.4367    -0.0252 C.ar    
   2 C2             0.0192     0.0536    -0.0359 C.ar    
   3 C3            -1.1606    -0.6688    -0.0207 C.ar    
   4 C4            -2.3746    -0.0085     0.0050 C.ar    
   5 C5            -2.4101     1.3734     0.0157 C.ar    
   6 C6            -1.2314     2.0957     0.0064 C.ar    
   7 C7            -3.7341     2.0926     0.0432 C.3     
   8 O8            -4.7239     1.3245     0.7571 O.3     
   9 C9            -3.6494     3.3757     0.9039 C.3     
  10 C10           -4.1234     2.8939     2.2619 C.2     
  11 N11           -4.7055     1.7508     2.1051 N.2     
  12 C12           -3.9496     3.6060     3.5394 C.ar    
  13 C13           -4.4574     3.0251     4.7799 C.ar    
  14 C14           -3.2973     4.8308     3.5733 C.ar    
  15 C15           -3.1201     5.5214     4.7590 C.ar    
  16 C16           -3.5871     5.0192     5.9660 C.ar    
  17 C17           -4.2764     3.7313     5.9926 C.ar    
  18 C18           -3.3837     5.7775     7.2132 C.2     
  19 O19           -3.8855     5.3882     8.2502 O.2     
  20 N20           -2.6416     6.9025     7.2045 N.am    
  21 C21           -4.7637     3.1861     7.1871 C.ar    
  22 C22           -5.1162     1.7891     4.7938 C.ar    
  23 C23           -4.2090     2.4142    -1.3752 C.3     
  24 F24           -4.3419     1.2268    -2.1029 F       
  25 F25           -5.4454     3.0661    -1.3165 F       
  26 F26           -3.2738     3.2438    -2.0032 F       
  27 Cl27           1.5444    -0.7749    -0.0688 Cl      
  28 C28           -2.4500     7.6167     8.3792 C.ar    
  29 N29           -1.7179     8.7200     8.3527 N.ar    
  30 N30           -3.0082     7.1814     9.4985 N.ar    
  31 C31           -2.8456     7.8381    10.6351 C.ar    
  32 C32           -2.0806     8.9940    10.6445 C.ar    
  33 C33           -1.5156     9.4240     9.4540 C.ar    
  34 C34           -5.5739     1.2833     5.9742 C.ar    
  35 C35           -5.4007     1.9809     7.1666 C.ar    
  36 C36            1.2677     2.2243    -0.0417 C.3     
  37 F37            0.9761     3.5925    -0.0267 F       
  38 F38            2.0296     1.8975     1.0852 F       
  39 F39            1.9901     1.9141    -1.1989 F       
  40 C40           -1.1221    -2.1752    -0.0328 C.3     
  41 F41           -2.4286    -2.6753    -0.0138 F       
  42 F42           -0.4710    -2.6158    -1.1900 F       
  43 F43           -0.4311    -2.6331     1.0941 F       
  44 H44           -3.2957    -0.5724     0.0165 H       
  45 H45           -1.2598     3.1753     0.0147 H       
  46 H46           -2.6228     3.7379     0.9585 H       
  47 H47           -4.3129     4.1476     0.5140 H       
  48 H48           -2.9195     5.2536     2.6542 H       
  49 H49           -2.6070     6.4716     4.7452 H       
  50 H50           -2.2413     7.2130     6.3773 H       
  51 H51           -4.6353     3.7170     8.1188 H       
  52 H52           -5.2611     1.2402     3.8750 H       
  53 H53           -3.3037     7.4783    11.5446 H       
  54 H54           -1.9316     9.5497    11.5585 H       
  55 H55           -0.9141    10.3206     9.4269 H       
  56 H56           -6.0818     0.3302     5.9838 H       
  57 H57           -5.7757     1.5612     8.0883 H       
@<TRIPOS>BOND
   1    1    2 ar
   2    1   36 1
   3    1    6 ar
   4    2    3 ar
   5    2   27 1
   6    3    4 ar
   7    3   40 1
   8    4    5 ar
   9    4   44 1
  10    5    6 ar
  11    5    7 1
  12    6   45 1
  13    7    8 1
  14    7    9 1
  15    7   23 1
  16    8   11 1
  17    9   10 1
  18    9   46 1
  19    9   47 1
  20   10   11 2
  21   10   12 1
  22   12   13 ar
  23   12   14 ar
  24   13   22 ar
  25   13   17 ar
  26   14   15 ar
  27   14   48 1
  28   15   16 ar
  29   15   49 1
  30   16   17 ar
  31   16   18 1
  32   17   21 ar
  33   18   19 2
  34   18   20 am
  35   20   28 1
  36   20   50 1
  37   21   35 ar
  38   21   51 1
  39   22   34 ar
  40   22   52 1
  41   23   24 1
  42   23   25 1
  43   23   26 1
  44   28   29 ar
  45   28   30 ar
  46   29   33 ar
  47   30   31 ar
  48   31   32 ar
  49   31   53 1
  50   32   33 ar
  51   32   54 1
  52   33   55 1
  53   34   35 ar
  54   34   56 1
  55   35   57 1
  56   36   37 1
  57   36   38 1
  58   36   39 1
  59   40   41 1
  60   40   42 1
  61   40   43 1

#	End of record

