#	Name: ASD05730130
#	Creating user name:	WinNT
#	Creation time:	15. 06. 2019 21:02

#	Modifying user name:	WinNT
#	Modification time:	15. 06. 2019 21:02

#	Program:	/corina/corina34_cracker 3.40 0067  02.08.2006

@<TRIPOS>MOLECULE
ASD05730130
  90   95    0    0    0
SMALL
NO_CHARGES


@<TRIPOS>ATOM
   1 O1             0.1363     1.2407     0.8702 O.3     
   2 C2             0.1118    -0.0999     0.6440 C.ar    
   3 C3             1.1007    -0.9116     1.1803 C.ar    
   4 C4             1.0766    -2.2731     0.9511 C.ar    
   5 C5             0.0617    -2.8298     0.1839 C.ar    
   6 C6            -0.9281    -2.0167    -0.3522 C.ar    
   7 C7            -0.9052    -0.6559    -0.1181 C.ar    
   8 N8             0.0368    -4.2102    -0.0494 N.pl3   
   9 C9             1.2147    -4.8924    -0.2838 C.ar    
  10 N10            1.1773    -6.2119    -0.3906 N.ar    
  11 C11            2.2892    -6.9025    -0.6159 C.ar    
  12 C12            3.5090    -6.2023    -0.7389 C.ar    
  13 C13            3.4958    -4.8045    -0.6178 C.ar    
  14 N14            2.3429    -4.2003    -0.3992 N.ar    
  15 N15            2.2598    -8.2696    -0.7275 N.am    
  16 C16            3.3906    -8.9650    -0.9551 C.2     
  17 C17            4.6725    -8.2696    -1.0873 C.2     
  18 C18            4.7115    -6.9052    -0.9792 C.2     
  19 C19            0.9854    -8.9804    -0.5972 C.3     
  20 O20            3.3468   -10.1785    -1.0511 O.2     
  21 C21            5.9161    -9.0355    -1.3368 C.ar    
  22 C22            1.1489     1.7317     1.7509 C.3     
  23 C23            0.6965    -9.7499    -1.8881 C.3     
  24 C24            6.4963    -9.0347    -2.6051 C.ar    
  25 C25            7.6543    -9.7498    -2.8313 C.ar    
  26 C26            8.2398   -10.4672    -1.8031 C.ar    
  27 C27            7.6690   -10.4717    -0.5431 C.ar    
  28 C28            6.5142    -9.7552    -0.3031 C.ar    
  29 S29            9.7180   -11.3789    -2.1001 S.o2    
  30 C30            2.4428     1.9586     0.9658 C.3     
  31 C31            5.8594    -8.2548    -3.7263 C.3     
  32 C32           11.0536   -10.2058    -1.7389 C.3     
  33 O33            9.6902   -12.4170    -1.1302 O.2     
  34 O34            9.6750   -11.6732    -3.4896 O.2     
  35 N35            3.4776     2.4830     1.8661 N.3     
  36 C36            3.0815     3.7786     2.4327 C.3     
  37 C37            1.8067     3.6061     3.2616 C.3     
  38 C38            0.6921     3.0572     2.3666 C.3     
  39 C39            1.0656    -9.9603     0.5757 C.3     
  40 C40           -0.2797   -10.6765     0.7305 C.3     
  41 N41           -0.6345   -11.2986    -0.5524 N.am    
  42 C42           -0.6530   -10.4638    -1.7612 C.3     
  43 S43           -1.0061   -12.9103    -0.6343 S.o2    
  44 C44           -2.7997   -12.9753    -0.3707 C.3     
  45 O45           -0.6847   -13.2767    -1.9691 O.2     
  46 O46           -0.3189   -13.4849     0.4688 O.2     
  47 C47            4.7721     2.5826     1.1789 C.3     
  48 C48           12.4052   -10.8872    -1.9624 C.3     
  49 F49           12.5010   -11.3077    -3.2933 F       
  50 F50           13.4353    -9.9825    -1.6839 F       
  51 F51           12.5151   -11.9945    -1.1145 F       
  52 H52            1.8899    -0.4784     1.7770 H       
  53 H53            1.8469    -2.9048     1.3681 H       
  54 H54           -1.7175    -2.4488    -0.9494 H       
  55 H55           -1.6749    -0.0234    -0.5350 H       
  56 H56           -0.8077    -4.6874    -0.0463 H       
  57 H57            4.4090    -4.2347    -0.7060 H       
  58 H58            5.6472    -6.3743    -1.0741 H       
  59 H59            0.1858    -8.2621    -0.4162 H       
  60 H60            1.3265     1.0041     2.5428 H       
  61 H61            0.6626    -9.0542    -2.7265 H       
  62 H62            1.4828   -10.4857    -2.0568 H       
  63 H63            8.1045    -9.7500    -3.8130 H       
  64 H64            8.1303   -11.0338     0.2554 H       
  65 H65            6.0694    -9.7595     0.6811 H       
  66 H66            2.7784     1.0139     0.5380 H       
  67 H67            2.2608     2.6754     0.1650 H       
  68 H68            6.2642    -7.2429    -3.7407 H       
  69 H69            6.0722    -8.7448    -4.6764 H       
  70 H70            4.7811    -8.2126    -3.5727 H       
  71 H71           10.9680    -9.3431    -2.3996 H       
  72 H72           10.9790    -9.8783    -0.7020 H       
  73 H73            3.8810     4.1558     3.0703 H       
  74 H74            2.8965     4.4869     1.6251 H       
  75 H75            1.9948     2.9084     4.0777 H       
  76 H76            1.5043     4.5707     3.6691 H       
  77 H77            0.4769     3.7725     1.5728 H       
  78 H78           -0.2054     2.8919     2.9625 H       
  79 H79            1.8485   -10.6940     0.3838 H       
  80 H80            1.2945    -9.4142     1.4909 H       
  81 H81           -0.1981   -11.4450     1.4991 H       
  82 H82           -1.0472    -9.9555     1.0117 H       
  83 H83           -1.4510    -9.7254    -1.6833 H       
  84 H84           -0.8178   -11.0919    -2.6367 H       
  85 H85           -3.3024   -12.4017    -1.1495 H       
  86 H86           -3.1353   -14.0116    -0.4089 H       
  87 H87           -3.0392   -12.5515     0.6045 H       
  88 H88            4.6794     3.2533     0.3247 H       
  89 H89            5.5203     2.9736     1.8683 H       
  90 H90            5.0771     1.5947     0.8337 H       
@<TRIPOS>BOND
   1    1    2 1
   2    1   22 1
   3    2    3 ar
   4    2    7 ar
   5    3    4 ar
   6    3   52 1
   7    4    5 ar
   8    4   53 1
   9    5    6 ar
  10    5    8 1
  11    6    7 ar
  12    6   54 1
  13    7   55 1
  14    8    9 1
  15    8   56 1
  16    9   10 ar
  17    9   14 ar
  18   10   11 ar
  19   11   12 ar
  20   11   15 1
  21   12   13 ar
  22   12   18 1
  23   13   14 ar
  24   13   57 1
  25   15   16 am
  26   15   19 1
  27   16   17 1
  28   16   20 2
  29   17   18 2
  30   17   21 1
  31   18   58 1
  32   19   39 1
  33   19   23 1
  34   19   59 1
  35   21   24 ar
  36   21   28 ar
  37   22   30 1
  38   22   38 1
  39   22   60 1
  40   23   42 1
  41   23   61 1
  42   23   62 1
  43   24   25 ar
  44   24   31 1
  45   25   26 ar
  46   25   63 1
  47   26   27 ar
  48   26   29 1
  49   27   28 ar
  50   27   64 1
  51   28   65 1
  52   29   32 1
  53   29   33 2
  54   29   34 2
  55   30   35 1
  56   30   66 1
  57   30   67 1
  58   31   68 1
  59   31   69 1
  60   31   70 1
  61   32   48 1
  62   32   71 1
  63   32   72 1
  64   35   36 1
  65   35   47 1
  66   36   37 1
  67   36   73 1
  68   36   74 1
  69   37   38 1
  70   37   75 1
  71   37   76 1
  72   38   77 1
  73   38   78 1
  74   39   40 1
  75   39   79 1
  76   39   80 1
  77   40   41 1
  78   40   81 1
  79   40   82 1
  80   41   42 1
  81   41   43 am
  82   42   83 1
  83   42   84 1
  84   43   44 1
  85   43   45 2
  86   43   46 2
  87   44   85 1
  88   44   86 1
  89   44   87 1
  90   47   88 1
  91   47   89 1
  92   47   90 1
  93   48   49 1
  94   48   50 1
  95   48   51 1

#	End of record

