#	Name: ASD09740056
#	Creating user name:	WinNT
#	Creation time:	15. 06. 2019 21:22

#	Modifying user name:	WinNT
#	Modification time:	15. 06. 2019 21:22

#	Program:	/corina/corina34_cracker 3.40 0067  02.08.2006

@<TRIPOS>MOLECULE
ASD09740056
  57   60    0    0    0
SMALL
NO_CHARGES


@<TRIPOS>ATOM
   1 N1             0.6520     1.0190     0.7670 N.2     
   2 O2             0.7988    -0.1732     0.9342 O.3     
   3 C3             1.8139     1.6213     0.7411 C.2     
   4 N4             2.7616     0.6759     0.9130 N.2     
   5 C5             2.1054    -0.4634     1.0351 C.2     
   6 C6             2.6961    -1.8010     1.2432 C.ar    
   7 C7             2.0462     3.0746     0.5563 C.ar    
   8 C8             4.0818    -1.9482     1.3291 C.ar    
   9 C9             1.8691    -2.9209     1.3604 C.ar    
  10 C10            2.4264    -4.1699     1.5556 C.ar    
  11 C11            3.8109    -4.3106     1.6351 C.ar    
  12 C12            4.6317    -3.1976     1.5235 C.ar    
  13 C13            3.3447     3.5815     0.5492 C.ar    
  14 C14            3.5592     4.9306     0.3806 C.ar    
  15 C15            2.4809     5.8009     0.2158 C.ar    
  16 C16            1.1867     5.2889     0.2177 C.ar    
  17 C17            0.9668     3.9408     0.3830 C.ar    
  18 O18            4.3575    -5.5395     1.8270 O.3     
  19 C19            5.7829    -5.6115     1.8989 C.3     
  20 C20            6.2098    -7.0646     2.1163 C.3     
  21 O21            1.6242    -5.2621     1.6705 O.3     
  22 C22            0.2148    -5.0442     1.5798 C.3     
  23 C23           -0.5183    -6.3787     1.7310 C.3     
  24 N24            2.4686     7.1888     0.0451 N.3     
  25 C25            1.1541     7.5661    -0.5180 C.3     
  26 C26            0.2279     6.4436     0.0037 C.3     
  27 C27            3.5621     7.6207    -0.8356 C.3     
  28 C28            3.4535     9.1267    -1.0827 C.3     
  29 C29            4.6647     9.5999    -1.8888 C.3     
  30 O30            4.5633    11.0065    -2.1196 O.3     
  31 H31            4.7230    -1.0834     1.2429 H       
  32 H32            0.7965    -2.8104     1.2990 H       
  33 H33            5.7040    -3.3106     1.5856 H       
  34 H34            4.1843     2.9142     0.6765 H       
  35 H35            4.5674     5.3178     0.3763 H       
  36 H36           -0.0417     3.5545     0.3872 H       
  37 H37            6.2128    -5.2419     0.9680 H       
  38 H38            6.1361    -5.0009     2.7299 H       
  39 H39            5.7799    -7.4342     3.0473 H       
  40 H40            5.8566    -7.6753     1.2854 H       
  41 H41            7.2970    -7.1195     2.1711 H       
  42 H42           -0.0997    -4.3652     2.3724 H       
  43 H43           -0.0236    -4.6065     0.6105 H       
  44 H44           -0.2799    -6.8164     2.7003 H       
  45 H45           -1.5933    -6.2125     1.6618 H       
  46 H46           -0.2039    -7.0577     0.9384 H       
  47 H47            0.8356     8.5373    -0.1394 H       
  48 H48            1.1858     7.5661    -1.6075 H       
  49 H49           -0.5252     6.1870    -0.7413 H       
  50 H50           -0.2409     6.7354     0.9435 H       
  51 H51            4.5187     7.3981    -0.3630 H       
  52 H52            3.4942     7.0908    -1.7857 H       
  53 H53            2.5409     9.3386    -1.6398 H       
  54 H54            3.4258     9.6505    -0.1272 H       
  55 H55            5.5773     9.3880    -1.3317 H       
  56 H56            4.6925     9.0760    -2.8443 H       
  57 H57            5.2993    11.3760    -2.6263 H       
@<TRIPOS>BOND
   1    1    2 1
   2    1    3 2
   3    2    5 1
   4    3    4 1
   5    3    7 1
   6    4    5 2
   7    5    6 1
   8    6    8 ar
   9    6    9 ar
  10    7   13 ar
  11    7   17 ar
  12    8   12 ar
  13    8   31 1
  14    9   10 ar
  15    9   32 1
  16   10   11 ar
  17   10   21 1
  18   11   12 ar
  19   11   18 1
  20   12   33 1
  21   13   14 ar
  22   13   34 1
  23   14   15 ar
  24   14   35 1
  25   15   16 ar
  26   15   24 1
  27   16   17 ar
  28   16   26 1
  29   17   36 1
  30   18   19 1
  31   19   20 1
  32   19   37 1
  33   19   38 1
  34   20   39 1
  35   20   40 1
  36   20   41 1
  37   21   22 1
  38   22   23 1
  39   22   42 1
  40   22   43 1
  41   23   44 1
  42   23   45 1
  43   23   46 1
  44   24   25 1
  45   24   27 1
  46   25   26 1
  47   25   47 1
  48   25   48 1
  49   26   49 1
  50   26   50 1
  51   27   28 1
  52   27   51 1
  53   27   52 1
  54   28   29 1
  55   28   53 1
  56   28   54 1
  57   29   30 1
  58   29   55 1
  59   29   56 1
  60   30   57 1

#	End of record

