#	Name: ASD01917731
#	Creating user name:	WinNT
#	Creation time:	15. 06. 2019 20:09

#	Modifying user name:	WinNT
#	Modification time:	15. 06. 2019 20:09

#	Program:	/corina/corina34_cracker 3.40 0067  02.08.2006

@<TRIPOS>MOLECULE
ASD01917731
  40   43    0    0    0
SMALL
NO_CHARGES


@<TRIPOS>ATOM
   1 N1             4.8221    -0.4106    -2.1399 N.ar    
   2 C2             5.2889     0.2866    -3.1572 C.ar    
   3 C3             5.1761     1.6664    -3.1838 C.ar    
   4 C4             4.5620     2.3155    -2.1220 C.ar    
   5 C5             4.0814     1.5472    -1.0669 C.ar    
   6 C6             4.2326     0.1684    -1.1131 C.ar    
   7 F7             5.6583     2.3719    -4.2301 F       
   8 O8             3.4732     2.1385    -0.0053 O.3     
   9 C9             3.4534     3.4977     0.0438 C.2     
  10 N10            2.2023     5.5114    -0.0225 N.pl3   
  11 C11            2.2712     4.1515    -0.0661 C.2     
  12 C12            4.6555     4.1991     0.2131 C.2     
  13 C13            4.6319     5.5870     0.2633 C.2     
  14 C14            3.3400     6.2638     0.1360 C.2     
  15 C15            5.8738     6.3574     0.4404 C.2     
  16 N16            5.8308     7.7037     0.4867 N.am    
  17 C17            6.9887     8.4285     0.7595 C.ar    
  18 N18            8.1479     7.7977     0.8650 N.ar    
  19 C19            6.9173     9.8085     0.9128 C.ar    
  20 C20            8.0752    10.5164     1.1836 C.ar    
  21 C21            9.2691     9.8167     1.2920 C.ar    
  22 C22            9.2674     8.4460     1.1223 C.ar    
  23 O23            6.9387     5.7790     0.5449 O.2     
  24 C24            1.1776     6.4046    -0.1051 C.2     
  25 N25            1.6924     7.6025    -0.0081 N.2     
  26 N26            2.9688     7.5286     0.1404 N.2     
  27 C27           10.5548    10.5458     1.5859 C.3     
  28 H28            5.7657    -0.2251    -3.9801 H       
  29 H29            4.4600     3.3907    -2.1151 H       
  30 H30            3.8629    -0.4369    -0.2986 H       
  31 H31            1.3627     3.5812    -0.1915 H       
  32 H32            5.5902     3.6658     0.3038 H       
  33 H33            4.9936     8.1679     0.3301 H       
  34 H34            5.9712    10.3211     0.8215 H       
  35 H35            8.0506    11.5890     1.3074 H       
  36 H36           10.1947     7.8980     1.2013 H       
  37 H37            0.1319     6.1671    -0.2337 H       
  38 H38           10.7028    10.6013     2.6644 H       
  39 H39           11.3884    10.0099     1.1319 H       
  40 H40           10.5033    11.5537     1.1739 H       
@<TRIPOS>BOND
   1    1    2 ar
   2    1    6 ar
   3    2    3 ar
   4    2   28 1
   5    3    4 ar
   6    3    7 1
   7    4    5 ar
   8    4   29 1
   9    5    6 ar
  10    5    8 1
  11    6   30 1
  12    8    9 1
  13    9   12 1
  14    9   11 2
  15   10   11 1
  16   10   24 1
  17   10   14 1
  18   11   31 1
  19   12   13 2
  20   12   32 1
  21   13   14 1
  22   13   15 1
  23   14   26 2
  24   15   16 am
  25   15   23 2
  26   16   17 1
  27   16   33 1
  28   17   19 ar
  29   17   18 ar
  30   18   22 ar
  31   19   20 ar
  32   19   34 1
  33   20   21 ar
  34   20   35 1
  35   21   22 ar
  36   21   27 1
  37   22   36 1
  38   24   25 2
  39   24   37 1
  40   25   26 1
  41   27   38 1
  42   27   39 1
  43   27   40 1

#	End of record

