#	Name: ASD04660006
#	Creating user name:	WinNT
#	Creation time:	15. 06. 2019 20:52

#	Modifying user name:	WinNT
#	Modification time:	15. 06. 2019 20:52

#	Program:	/corina/corina34_cracker 3.40 0067  02.08.2006

@<TRIPOS>MOLECULE
ASD04660006
  19   20    0    0    0
SMALL
NO_CHARGES


@<TRIPOS>ATOM
   1 C1            -0.0167     1.3781     0.0096 C.ar    
   2 C2             0.0021    -0.0041     0.0020 C.ar    
   3 C3             1.2084    -0.6789    -0.0132 C.ar    
   4 C4             2.3960     0.0285    -0.0212 C.ar    
   5 C5             2.3773     1.4107    -0.0145 C.ar    
   6 C6             1.1709     2.0855     0.0021 C.ar    
   7 C7             1.1505     3.5924     0.0089 C.3     
   8 C8             0.8907     4.3078    -1.3184 C.3     
   9 O9            -0.0887     4.2428    -0.2798 O.3     
  10 N10            1.2285    -2.1589    -0.0203 N.pl3   
  11 O11            0.1821    -2.7822    -0.0128 O.2     
  12 O12            2.2914    -2.7535    -0.0337 O.2     
  13 H13           -0.9592     1.9054     0.0170 H       
  14 H14           -0.9258    -0.5567     0.0083 H       
  15 H15            3.3385    -0.4987    -0.0324 H       
  16 H16            3.3051     1.9634    -0.0201 H       
  17 H17            1.8225     4.0713     0.7210 H       
  18 H18            1.3895     5.2622    -1.4870 H       
  19 H19            0.7329     3.6929    -2.2044 H       
@<TRIPOS>BOND
   1    1    2 ar
   2    1    6 ar
   3    1   13 1
   4    2    3 ar
   5    2   14 1
   6    3    4 ar
   7    3   10 1
   8    4    5 ar
   9    4   15 1
  10    5    6 ar
  11    5   16 1
  12    6    7 1
  13    7    8 1
  14    7    9 1
  15    7   17 1
  16    8    9 1
  17    8   18 1
  18    8   19 1
  19   10   11 2
  20   10   12 2

#	End of record

