#	Name: ASD02030598
#	Creating user name:	WinNT
#	Creation time:	15. 06. 2019 20:15

#	Modifying user name:	WinNT
#	Modification time:	15. 06. 2019 20:15

#	Program:	/corina/corina34_cracker 3.40 0067  02.08.2006

@<TRIPOS>MOLECULE
ASD02030598
  58   61    0    0    0
SMALL
NO_CHARGES


@<TRIPOS>ATOM
   1 C1            -0.0277     1.3811     0.0121 C.ar    
   2 C2            -0.0152     0.0025     0.0108 C.ar    
   3 C3             1.1968    -0.6732     0.0054 C.ar    
   4 C4             2.3812     0.0427     0.0070 C.ar    
   5 C5             2.3664     1.4316     0.0148 C.ar    
   6 C6             1.1615     2.0985     0.0083 C.ar    
   7 C7             1.0734     3.6040    -0.0174 C.3     
   8 C8             3.6936     2.1429     0.0452 C.3     
   9 C9             3.5487     3.5856    -0.4362 C.3     
  10 N10            2.3941     4.1809     0.2551 N.am    
  11 C11            0.5921     4.0624    -1.3954 C.3     
  12 O12            1.4505     3.5241    -2.4031 O.3     
  13 C13            1.1597     3.8380    -3.6939 C.ar    
  14 C14            2.5447     5.2155     1.1057 C.2     
  15 O15            3.6576     5.6229     1.3761 O.2     
  16 C16            1.3564     5.8548     1.7098 C.ar    
  17 C17            0.5675     4.4765    -6.3216 C.ar    
  18 C18           -0.2212     4.9706    -5.2932 C.ar    
  19 C19            0.0742     4.6517    -3.9821 C.ar    
  20 C20            1.9521     3.3490    -4.7219 C.ar    
  21 C21            1.6567     3.6678    -6.0331 C.ar    
  22 C22            1.4124     6.3460     3.0151 C.ar    
  23 C23            0.1758     5.9749     0.9754 C.ar    
  24 C24           -0.9299     6.5729     1.5443 C.ar    
  25 C25           -0.8706     7.0533     2.8400 C.ar    
  26 C26            0.2992     6.9424     3.5730 C.ar    
  27 Cl27           0.3657     7.5537     5.1964 Cl      
  28 O28            1.2206    -2.0320    -0.0011 O.3     
  29 C29           -0.0411    -2.7029    -0.0020 C.3     
  30 O30            0.2764     4.7900    -7.6124 O.3     
  31 C31            1.1309     4.2464    -8.6206 C.3     
  32 C32            0.1859    -4.2160    -0.0096 C.3     
  33 H33           -0.9705     1.9078     0.0116 H       
  34 H34           -0.9439    -0.5487     0.0144 H       
  35 H35            3.3247    -0.4828     0.0026 H       
  36 H36            0.3675     3.9390     0.7426 H       
  37 H37            4.0773     2.1423     1.0654 H       
  38 H38            4.3965     1.6180    -0.6017 H       
  39 H39            4.4519     4.1467    -0.1964 H       
  40 H40            3.3800     3.5998    -1.5130 H       
  41 H41           -0.4264     3.7108    -1.5600 H       
  42 H42            0.6130     5.1511    -1.4439 H       
  43 H43           -1.0692     5.6005    -5.5179 H       
  44 H44           -0.5404     5.0358    -3.1813 H       
  45 H45            2.8003     2.7193    -4.4972 H       
  46 H46            2.2708     3.2831    -6.8338 H       
  47 H47            2.3242     6.2595     3.5874 H       
  48 H48            0.1278     5.6007    -0.0366 H       
  49 H49           -1.8437     6.6665     0.9764 H       
  50 H50           -1.7388     7.5209     3.2804 H       
  51 H51           -0.6015    -2.4241     0.8904 H       
  52 H52           -0.6048    -2.4156    -0.8896 H       
  53 H53            2.1513     4.5934    -8.4578 H       
  54 H54            1.1050     3.1578    -8.5706 H       
  55 H55            0.7882     4.5732    -9.6023 H       
  56 H56            0.7463    -4.4948    -0.9020 H       
  57 H57            0.7496    -4.5033     0.8780 H       
  58 H58           -0.7765    -4.7278    -0.0103 H       
@<TRIPOS>BOND
   1    1    2 ar
   2    1    6 ar
   3    1   33 1
   4    2    3 ar
   5    2   34 1
   6    3    4 ar
   7    3   28 1
   8    4    5 ar
   9    4   35 1
  10    5    6 ar
  11    5    8 1
  12    6    7 1
  13    7   10 1
  14    7   11 1
  15    7   36 1
  16    8    9 1
  17    8   37 1
  18    8   38 1
  19    9   10 1
  20    9   39 1
  21    9   40 1
  22   10   14 am
  23   11   12 1
  24   11   41 1
  25   11   42 1
  26   12   13 1
  27   13   20 ar
  28   13   19 ar
  29   14   15 2
  30   14   16 1
  31   16   23 ar
  32   16   22 ar
  33   17   18 ar
  34   17   21 ar
  35   17   30 1
  36   18   19 ar
  37   18   43 1
  38   19   44 1
  39   20   21 ar
  40   20   45 1
  41   21   46 1
  42   22   26 ar
  43   22   47 1
  44   23   24 ar
  45   23   48 1
  46   24   25 ar
  47   24   49 1
  48   25   26 ar
  49   25   50 1
  50   26   27 1
  51   28   29 1
  52   29   32 1
  53   29   51 1
  54   29   52 1
  55   30   31 1
  56   31   53 1
  57   31   54 1
  58   31   55 1
  59   32   56 1
  60   32   57 1
  61   32   58 1

#	End of record

