#	Name: ASD03930241
#	Creating user name:	WinNT
#	Creation time:	15. 06. 2019 20:47

#	Modifying user name:	WinNT
#	Modification time:	15. 06. 2019 20:47

#	Program:	/corina/corina34_cracker 3.40 0067  02.08.2006

@<TRIPOS>MOLECULE
ASD03930241
  43   44    0    0    0
SMALL
NO_CHARGES


@<TRIPOS>ATOM
   1 C1            -0.0225     1.8057     0.0120 C.3     
   2 S2             0.0021    -0.0041     0.0020 S.3     
   3 C3            -1.7288    -0.3336     0.0168 C.2     
   4 C4            -2.5193    -0.4861     1.1562 C.2     
   5 C5            -2.0762    -0.4044     2.5155 C.1     
   6 N6            -1.7248    -0.3395     3.5938 N.1     
   7 C7            -3.8453    -0.7369     0.7156 C.2     
   8 C8            -3.8182    -0.7289    -0.6732 C.2     
   9 C9            -4.9271    -0.9376    -1.5261 C.2     
  10 O10           -4.7639    -0.9038    -2.8660 O.3     
  11 O11           -6.0285    -1.1476    -1.0522 O.2     
  12 N12           -2.5174    -0.4759    -1.0779 N.pl3   
  13 C13           -2.0648    -0.3797    -2.4679 C.3     
  14 C14           -5.0307    -0.9637     1.5726 C.ar    
  15 C15           -5.6742    -2.2017     1.5648 C.ar    
  16 C16           -6.7783    -2.4069     2.3663 C.ar    
  17 C17           -7.2479    -1.3882     3.1761 C.ar    
  18 C18           -6.6145    -0.1582     3.1879 C.ar    
  19 C19           -5.5058     0.0577     2.3957 C.ar    
  20 C20           -8.4547    -1.6192     4.0486 C.3     
  21 C21           -8.1691    -2.7653     5.0211 C.3     
  22 C22           -8.7646    -0.3457     4.8380 C.3     
  23 C23           -9.6557    -1.9810     3.1725 C.3     
  24 H24            1.0001     2.1830     0.0042 H       
  25 H25           -0.5497     2.1668    -0.8711 H       
  26 H26           -0.5327     2.1573     0.9088 H       
  27 H27           -5.5777    -1.0573    -3.3653 H       
  28 H28           -1.7608    -1.3654    -2.8201 H       
  29 H29           -2.8784    -0.0066    -3.0900 H       
  30 H30           -1.2184     0.3045    -2.5279 H       
  31 H31           -5.3089    -2.9974     0.9325 H       
  32 H32           -7.2773    -3.3648     2.3612 H       
  33 H33           -6.9861     0.6331     3.8220 H       
  34 H34           -5.0093     1.0167     2.4095 H       
  35 H35           -7.3135    -2.5075     5.6453 H       
  36 H36           -9.0420    -2.9323     5.6522 H       
  37 H37           -7.9484    -3.6725     4.4587 H       
  38 H38           -8.9680     0.4708     4.1452 H       
  39 H39           -9.6374    -0.5127     5.4691 H       
  40 H40           -7.9089    -0.0879     5.4622 H       
  41 H41           -9.4350    -2.8883     2.6101 H       
  42 H42          -10.5286    -2.1481     3.8036 H       
  43 H43           -9.8592    -1.1645     2.4797 H       
@<TRIPOS>BOND
   1    1    2 1
   2    1   24 1
   3    1   25 1
   4    1   26 1
   5    2    3 1
   6    3   12 1
   7    3    4 2
   8    4    5 1
   9    4    7 1
  10    5    6 3
  11    7    8 2
  12    7   14 1
  13    8    9 1
  14    8   12 1
  15    9   10 1
  16    9   11 2
  17   10   27 1
  18   12   13 1
  19   13   28 1
  20   13   29 1
  21   13   30 1
  22   14   19 ar
  23   14   15 ar
  24   15   16 ar
  25   15   31 1
  26   16   17 ar
  27   16   32 1
  28   17   18 ar
  29   17   20 1
  30   18   19 ar
  31   18   33 1
  32   19   34 1
  33   20   21 1
  34   20   22 1
  35   20   23 1
  36   21   35 1
  37   21   36 1
  38   21   37 1
  39   22   38 1
  40   22   39 1
  41   22   40 1
  42   23   41 1
  43   23   42 1
  44   23   43 1

#	End of record

