#	Name: ASD03330283
#	Creating user name:	WinNT
#	Creation time:	15. 06. 2019 20:36

#	Modifying user name:	WinNT
#	Modification time:	15. 06. 2019 20:36

#	Program:	/corina/corina34_cracker 3.40 0067  02.08.2006

@<TRIPOS>MOLECULE
ASD03330283
  68   71    0    0    0
SMALL
NO_CHARGES


@<TRIPOS>ATOM
   1 C1            -0.1970    -0.4681     1.6708 C.3     
   2 N2            -0.6209    -1.7681     1.1322 N.3     
   3 C3            -0.0816    -1.9843    -0.2226 C.3     
   4 C4             1.3974    -1.6975    -0.1864 C.2     
   5 N5             2.0112    -1.0287     0.8248 N.pl3   
   6 C6             1.3020    -0.5039     1.9952 C.3     
   7 C7             2.3536    -2.0244    -1.0913 C.2     
   8 N8             3.5352    -1.5579    -0.6263 N.2     
   9 C9             3.3351    -0.9590     0.5263 C.2     
  10 C10            4.3760    -0.3168     1.3588 C.ar    
  11 C11            5.6300    -0.0332     0.8170 C.ar    
  12 C12            2.1431    -2.7557    -2.3532 C.2     
  13 O13            1.0266    -3.1252    -2.6630 O.2     
  14 C14            2.9788    -3.7421    -4.4186 C.3     
  15 N15            3.1880    -3.0151    -3.1641 N.am    
  16 C16            6.5963     0.5662     1.5984 C.ar    
  17 C17            6.3239     0.8860     2.9165 C.ar    
  18 C18            5.0825     0.6074     3.4597 C.ar    
  19 C19            4.1059     0.0130     2.6872 C.ar    
  20 C20            2.5611    -2.7592    -5.5141 C.3     
  21 C21            3.6713    -1.7275    -5.7240 C.3     
  22 C22            2.3201    -3.5216    -6.8186 C.3     
  23 C23            1.2742    -2.0455    -5.0954 C.3     
  24 C24           -2.0848    -1.8899     1.1417 C.3     
  25 C25            4.2587    -4.4285    -4.8209 C.2     
  26 O26            5.3160    -4.0624    -4.3530 O.2     
  27 C27           -2.6804    -0.8623     0.2142 C.2     
  28 C28           -3.0971     0.3715     0.5643 C.2     
  29 N29            4.2283    -5.4492    -5.7005 N.am    
  30 C30            5.4795    -6.0535    -6.1648 C.3     
  31 C31           -3.5827     0.9988    -0.6001 C.2     
  32 C32           -3.4441     0.1245    -1.6174 C.2     
  33 N33           -2.8854    -1.0175    -1.1248 N.pl3   
  34 C34           -2.5674    -2.2169    -1.9036 C.3     
  35 H35           -0.3895     0.3103     0.9325 H       
  36 H36           -0.7592    -0.2515     2.5792 H       
  37 H37           -0.2491    -3.0179    -0.5252 H       
  38 H38           -0.5705    -1.3099    -0.9256 H       
  39 H39            1.6543     0.5033     2.2175 H       
  40 H40            1.4772    -1.1532     2.8530 H       
  41 H41            5.8440    -0.2827    -0.2118 H       
  42 H42            2.1950    -4.4869    -4.2806 H       
  43 H43            4.0785    -2.7204    -2.9170 H       
  44 H44            7.5676     0.7859     1.1802 H       
  45 H45            7.0838     1.3548     3.5242 H       
  46 H46            4.8759     0.8594     4.4894 H       
  47 H47            3.1371    -0.2040     3.1123 H       
  48 H48            4.5881    -2.2360    -6.0224 H       
  49 H49            3.3737    -1.0272    -6.5045 H       
  50 H50            3.8429    -1.1843    -4.7947 H       
  51 H51            1.5160    -4.2432    -6.6745 H       
  52 H52            2.0414    -2.8190    -7.6039 H       
  53 H53            3.2313    -4.0458    -7.1067 H       
  54 H54            1.4458    -1.5023    -4.1661 H       
  55 H55            0.9766    -1.3452    -5.8759 H       
  56 H56            0.4832    -2.7805    -4.9459 H       
  57 H57           -2.3685    -2.8882     0.8082 H       
  58 H58           -2.4565    -1.7254     2.1530 H       
  59 H59           -3.0650     0.7998     1.5551 H       
  60 H60            3.3780    -5.7836    -6.0263 H       
  61 H61            6.0866    -5.2963    -6.6609 H       
  62 H62            6.0264    -6.4567    -5.3124 H       
  63 H63            5.2563    -6.8573    -6.8664 H       
  64 H64           -3.9911     1.9964    -0.6658 H       
  65 H65           -3.7236     0.3001    -2.6457 H       
  66 H66           -1.5907    -2.0974    -2.3723 H       
  67 H67           -2.5501    -3.0845    -1.2439 H       
  68 H68           -3.3249    -2.3613    -2.6739 H       
@<TRIPOS>BOND
   1    1    2 1
   2    1    6 1
   3    1   35 1
   4    1   36 1
   5    2    3 1
   6    2   24 1
   7    3    4 1
   8    3   37 1
   9    3   38 1
  10    4    5 1
  11    4    7 2
  12    5    6 1
  13    5    9 1
  14    6   39 1
  15    6   40 1
  16    7    8 1
  17    7   12 1
  18    8    9 2
  19    9   10 1
  20   10   11 ar
  21   10   19 ar
  22   11   16 ar
  23   11   41 1
  24   12   13 2
  25   12   15 am
  26   14   15 1
  27   14   25 1
  28   14   20 1
  29   14   42 1
  30   15   43 1
  31   16   17 ar
  32   16   44 1
  33   17   18 ar
  34   17   45 1
  35   18   19 ar
  36   18   46 1
  37   19   47 1
  38   20   21 1
  39   20   22 1
  40   20   23 1
  41   21   48 1
  42   21   49 1
  43   21   50 1
  44   22   51 1
  45   22   52 1
  46   22   53 1
  47   23   54 1
  48   23   55 1
  49   23   56 1
  50   24   27 1
  51   24   57 1
  52   24   58 1
  53   25   26 2
  54   25   29 am
  55   27   28 2
  56   27   33 1
  57   28   31 1
  58   28   59 1
  59   29   30 1
  60   29   60 1
  61   30   61 1
  62   30   62 1
  63   30   63 1
  64   31   32 2
  65   31   64 1
  66   32   33 1
  67   32   65 1
  68   33   34 1
  69   34   66 1
  70   34   67 1
  71   34   68 1

#	End of record

