#	Name: ASD00069202
#	Creating user name:	WinNT
#	Creation time:	15. 06. 2019 18:29

#	Modifying user name:	WinNT
#	Modification time:	15. 06. 2019 18:29

#	Program:	/corina/corina34_cracker 3.40 0067  02.08.2006

@<TRIPOS>MOLECULE
ASD00069202
  76   80    0    0    0
SMALL
NO_CHARGES


@<TRIPOS>ATOM
   1 N1            -0.0202     1.4757     0.0015 N.am    
   2 C2             0.0007     0.0051     0.0153 C.3     
   3 C3             0.9111    -0.4794    -1.1182 C.3     
   4 N4             2.2269     0.1617    -0.9931 N.3     
   5 C5             2.1261     1.6193    -1.1457 C.3     
   6 C6             1.2655     2.1898    -0.0134 C.3     
   7 C7            -1.1866     2.1509    -0.0030 C.2     
   8 O8            -2.2397     1.5446     0.0043 O.2     
   9 O9            -1.1851     3.4972    -0.0157 O.3     
  10 C10            3.6054    -1.8521    -3.6079 C.ar    
  11 N11            2.7514    -1.3365    -2.7360 N.ar    
  12 C12            3.1276    -0.3717    -1.9013 C.ar    
  13 C13            4.4395     0.0962    -1.9525 C.ar    
  14 C14            5.3087    -0.4702    -2.8823 C.ar    
  15 N15            4.8587    -1.4343    -3.6865 N.ar    
  16 N16            3.1768    -2.8588    -4.4555 N.pl3   
  17 C17            4.1048    -3.4429    -5.4270 C.3     
  18 C18            8.5369     1.0872    -2.5918 C.2     
  19 N19            7.2822     0.9475    -2.2287 N.2     
  20 C20            6.7140    -0.0076    -2.9766 C.2     
  21 C21            7.6682    -0.4838    -3.8487 C.2     
  22 N22            8.8039     0.2051    -3.6020 N.pl3   
  23 C23            9.4977     2.0427    -2.0101 C.2     
  24 N24            9.1103     2.8678    -1.0174 N.am    
  25 O25           10.6397     2.0861    -2.4262 O.2     
  26 C26           10.0498     3.6910    -0.3844 C.ar    
  27 C27            9.6763     4.9535     0.0745 C.ar    
  28 C28           10.6130     5.7647     0.7012 C.ar    
  29 C29           11.9125     5.3183     0.8684 C.ar    
  30 C30           12.2813     4.0660     0.4127 C.ar    
  31 C31           11.3532     3.2502    -0.2071 C.ar    
  32 F32           10.2562     6.9890     1.1473 F       
  33 N33            8.3605     5.4024    -0.0966 N.3     
  34 C34            7.7307     5.6919     1.1980 C.3     
  35 C35            6.2556     6.0382     0.9830 C.3     
  36 C36            6.1514     7.2555     0.0600 C.3     
  37 C37            6.8570     6.9449    -1.2630 C.3     
  38 C38            8.3146     6.5723    -0.9829 C.3     
  39 C39            4.6781     7.5696    -0.2076 C.3     
  40 N40            4.5761     8.8063    -0.9939 N.3     
  41 C41           -2.4781     4.1579    -0.0198 C.3     
  42 H42            0.3878    -0.3467     0.9716 H       
  43 H43           -1.0087    -0.3769    -0.1372 H       
  44 H44            1.0262    -1.5615    -1.0549 H       
  45 H45            0.4679    -0.2159    -2.0785 H       
  46 H46            3.1224     2.0593    -1.1024 H       
  47 H47            1.6660     1.8535    -2.1057 H       
  48 H48            1.0923     3.2522    -0.1848 H       
  49 H49            1.7741     2.0480     0.9402 H       
  50 H50            4.7740     0.8789    -1.2877 H       
  51 H51            2.2621    -3.1777    -4.4062 H       
  52 H52            3.5917    -4.2144    -6.0012 H       
  53 H53            4.4618    -2.6648    -6.1017 H       
  54 H54            4.9514    -3.8842    -4.9010 H       
  55 H55            7.5339    -1.2593    -4.5883 H       
  56 H56            9.6529     0.0943    -4.0578 H       
  57 H57            8.1807     2.8915    -0.7413 H       
  58 H58           12.6405     5.9500     1.3556 H       
  59 H59           13.2966     3.7224     0.5451 H       
  60 H60           11.6441     2.2709    -0.5573 H       
  61 H61            7.8080     4.8169     1.8433 H       
  62 H62            8.2371     6.5352     1.6677 H       
  63 H63            5.7456     5.1903     0.5260 H       
  64 H64            5.7923     6.2683     1.9425 H       
  65 H65            6.6276     8.1138     0.5340 H       
  66 H66            6.3564     6.1112    -1.7553 H       
  67 H67            6.8233     7.8227    -1.9082 H       
  68 H68            8.8182     7.4114    -0.5030 H       
  69 H69            8.8160     6.3367    -1.9216 H       
  70 H70            4.2265     6.7476    -0.7630 H       
  71 H71            4.1559     7.6977     0.7405 H       
  72 H72            5.1064     8.7356    -1.8494 H       
  73 H73            3.6120     9.0354    -1.1840 H       
  74 H74           -3.0368     3.8573    -0.9061 H       
  75 H75           -3.0340     3.8740     0.8737 H       
  76 H76           -2.3340     5.2383    -0.0302 H       
@<TRIPOS>BOND
   1    1    2 1
   2    1    6 1
   3    1    7 am
   4    2    3 1
   5    2   42 1
   6    2   43 1
   7    3    4 1
   8    3   44 1
   9    3   45 1
  10    4    5 1
  11    4   12 1
  12    5    6 1
  13    5   46 1
  14    5   47 1
  15    6   48 1
  16    6   49 1
  17    7    8 2
  18    7    9 1
  19    9   41 1
  20   10   11 ar
  21   10   15 ar
  22   10   16 1
  23   11   12 ar
  24   12   13 ar
  25   13   14 ar
  26   13   50 1
  27   14   15 ar
  28   14   20 1
  29   16   17 1
  30   16   51 1
  31   17   52 1
  32   17   53 1
  33   17   54 1
  34   18   19 2
  35   18   22 1
  36   18   23 1
  37   19   20 1
  38   20   21 2
  39   21   22 1
  40   21   55 1
  41   22   56 1
  42   23   24 am
  43   23   25 2
  44   24   26 1
  45   24   57 1
  46   26   27 ar
  47   26   31 ar
  48   27   28 ar
  49   27   33 1
  50   28   29 ar
  51   28   32 1
  52   29   30 ar
  53   29   58 1
  54   30   31 ar
  55   30   59 1
  56   31   60 1
  57   33   34 1
  58   33   38 1
  59   34   35 1
  60   34   61 1
  61   34   62 1
  62   35   36 1
  63   35   63 1
  64   35   64 1
  65   36   37 1
  66   36   39 1
  67   36   65 1
  68   37   38 1
  69   37   66 1
  70   37   67 1
  71   38   68 1
  72   38   69 1
  73   39   40 1
  74   39   70 1
  75   39   71 1
  76   40   72 1
  77   40   73 1
  78   41   74 1
  79   41   75 1
  80   41   76 1

#	End of record

