#	Name: ASD01440063
#	Creating user name:	WinNT
#	Creation time:	15. 06. 2019 19:21

#	Modifying user name:	WinNT
#	Modification time:	15. 06. 2019 19:21

#	Program:	/corina/corina34_cracker 3.40 0067  02.08.2006

@<TRIPOS>MOLECULE
ASD01440063
  93   98    0    0    0
SMALL
NO_CHARGES


@<TRIPOS>ATOM
   1 N1             2.0583     1.4836    -0.3684 N.ar    
   2 C2             2.0583     0.1674    -0.4977 C.ar    
   3 C3             1.3650    -0.6322     0.4022 C.ar    
   4 C4             0.6718    -0.0335     1.4394 C.ar    
   5 C5             0.6967     1.3509     1.5403 C.ar    
   6 C6             1.4068     2.0832     0.6101 C.ar    
   7 C7             1.3674    -2.1315     0.2505 C.3     
   8 C8             0.6753    -2.7851     1.4278 C.2     
   9 C9             0.5329    -2.5451    -0.9402 C.ar    
  10 N10            2.7383    -2.6309     0.1188 N.am    
  11 C11           -0.4962    -3.3377    -0.4396 C.ar    
  12 C12            0.6325    -2.2826    -2.2835 C.ar    
  13 C13           -0.3111    -2.8165    -3.1680 C.ar    
  14 C14           -1.3466    -3.6130    -2.6714 C.ar    
  15 C15           -1.4375    -3.8690    -1.3231 C.ar    
  16 C16           -0.2168    -2.5485    -4.5715 C.1     
  17 N17           -0.3824    -3.4563     0.9427 N.am    
  18 C18           -2.8013    -3.2767     2.2431 C.ar    
  19 C19           -3.9387    -3.3323     1.4589 C.ar    
  20 C20           -2.7385    -2.4032     3.3131 C.ar    
  21 C21           -3.8126    -1.5836     3.6012 C.ar    
  22 C22           -4.9549    -1.6375     2.8158 C.ar    
  23 C23           -5.0153    -2.5145     1.7426 C.ar    
  24 O24           -6.0131    -0.8326     3.0975 O.3     
  25 O25            1.0130    -2.7162     2.5906 O.2     
  26 C26            3.6352    -2.4042     1.0990 C.2     
  27 O27            3.3347    -1.7068     2.0485 O.2     
  28 N28            4.8650    -2.9507     1.0267 N.am    
  29 C29            5.2056    -3.8876    -0.0527 C.3     
  30 C30            5.7571    -5.1751     0.5676 C.3     
  31 C31            6.9263    -4.8306     1.4931 C.3     
  32 C32            6.4347    -3.9224     2.6225 C.3     
  33 C33            5.8926    -2.6163     2.0222 C.3     
  34 N34            7.4790    -6.0661     2.0641 N.3     
  35 C35            8.6784    -5.7854     2.8654 C.3     
  36 C36            9.1761    -7.0833     3.5059 C.3     
  37 N37            9.4680    -8.0657     2.4526 N.3     
  38 C38            8.2685    -8.3464     1.6513 C.3     
  39 C39            7.7708    -7.0485     1.0108 C.3     
  40 C40           10.0206    -9.3012     3.0236 C.3     
  41 O41            2.7415    -0.4074    -1.5193 O.3     
  42 C42            3.3448     0.4709    -2.4716 C.3     
  43 C43            3.9613    -0.3516    -3.6048 C.3     
  44 N44           -0.1419    -2.3358    -5.6849 N.1     
  45 C45           -7.1559    -0.9419     2.2465 C.3     
  46 C46           10.1945   -10.3419     1.9156 C.3     
  47 C47           11.3789    -9.0047     3.6625 C.3     
  48 S48           -1.4324    -4.3259     1.8827 S.o2    
  49 O49           -1.9337    -5.3720     1.0620 O.2     
  50 O50           -0.7681    -4.5572     3.1175 O.2     
  51 H51            0.1236    -0.6295     2.1540 H       
  52 H52            0.1660     1.8497     2.3378 H       
  53 H53            1.4297     3.1604     0.6843 H       
  54 H54            3.0006    -3.1246    -0.6739 H       
  55 H55            1.4364    -1.6656    -2.6567 H       
  56 H56           -2.0783    -4.0282    -3.3486 H       
  57 H57           -2.2404    -4.4851    -0.9462 H       
  58 H58           -3.9853    -4.0155     0.6237 H       
  59 H59           -1.8490    -2.3619     3.9243 H       
  60 H60           -3.7631    -0.9018     4.4372 H       
  61 H61           -5.9034    -2.5581     1.1295 H       
  62 H62            4.3122    -4.1156    -0.6341 H       
  63 H63            5.9608    -3.4410    -0.6995 H       
  64 H64            4.9721    -5.6679     1.1412 H       
  65 H65            6.1030    -5.8408    -0.2231 H       
  66 H66            7.7004    -4.3158     0.9240 H       
  67 H67            5.6433    -4.4269     3.1767 H       
  68 H68            7.2628    -3.6964     3.2942 H       
  69 H69            6.7054    -2.0679     1.5461 H       
  70 H70            5.4509    -2.0073     2.8109 H       
  71 H71            9.4573    -5.3750     2.2227 H       
  72 H72            8.4338    -5.0651     3.6461 H       
  73 H73           10.0824    -6.8827     4.0772 H       
  74 H74            8.4075    -7.4793     4.1696 H       
  75 H75            8.5131    -9.0667     0.8706 H       
  76 H76            7.4896    -8.7568     2.2940 H       
  77 H77            6.8645    -7.2491     0.4395 H       
  78 H78            8.5394    -6.6525     0.3471 H       
  79 H79            9.3392    -9.6877     3.7815 H       
  80 H80            2.5874     1.1405    -2.8791 H       
  81 H81            4.1231     1.0571    -1.9831 H       
  82 H82            4.6538    -1.0829    -3.1879 H       
  83 H83            3.1716    -0.8686    -4.1498 H       
  84 H84            4.4979     0.3107    -4.2841 H       
  85 H85           -6.8704    -0.7026     1.2222 H       
  86 H86           -7.5433    -1.9599     2.2873 H       
  87 H87           -7.9258    -0.2465     2.5810 H       
  88 H88           10.8759    -9.9553     1.1578 H       
  89 H89           10.6046   -11.2586     2.3393 H       
  90 H90            9.2269   -10.5531     1.4605 H       
  91 H91           11.2550    -8.2633     4.4519 H       
  92 H92           11.7890    -9.9215     4.0862 H       
  93 H93           12.0603    -8.6182     2.9047 H       
@<TRIPOS>BOND
   1    1    2 ar
   2    1    6 ar
   3    2    3 ar
   4    2   41 1
   5    3    4 ar
   6    3    7 1
   7    4    5 ar
   8    4   51 1
   9    5    6 ar
  10    5   52 1
  11    6   53 1
  12    7    8 1
  13    7    9 1
  14    7   10 1
  15    8   17 am
  16    8   25 2
  17    9   11 ar
  18    9   12 ar
  19   10   26 am
  20   10   54 1
  21   11   17 1
  22   11   15 ar
  23   12   13 ar
  24   12   55 1
  25   13   14 ar
  26   13   16 1
  27   14   15 ar
  28   14   56 1
  29   15   57 1
  30   16   44 3
  31   17   48 am
  32   18   19 ar
  33   18   20 ar
  34   18   48 1
  35   19   23 ar
  36   19   58 1
  37   20   21 ar
  38   20   59 1
  39   21   22 ar
  40   21   60 1
  41   22   23 ar
  42   22   24 1
  43   23   61 1
  44   24   45 1
  45   26   27 2
  46   26   28 am
  47   28   29 1
  48   28   33 1
  49   29   30 1
  50   29   62 1
  51   29   63 1
  52   30   31 1
  53   30   64 1
  54   30   65 1
  55   31   32 1
  56   31   34 1
  57   31   66 1
  58   32   33 1
  59   32   67 1
  60   32   68 1
  61   33   69 1
  62   33   70 1
  63   34   35 1
  64   34   39 1
  65   35   36 1
  66   35   71 1
  67   35   72 1
  68   36   37 1
  69   36   73 1
  70   36   74 1
  71   37   38 1
  72   37   40 1
  73   38   39 1
  74   38   75 1
  75   38   76 1
  76   39   77 1
  77   39   78 1
  78   40   46 1
  79   40   47 1
  80   40   79 1
  81   41   42 1
  82   42   43 1
  83   42   80 1
  84   42   81 1
  85   43   82 1
  86   43   83 1
  87   43   84 1
  88   45   85 1
  89   45   86 1
  90   45   87 1
  91   46   88 1
  92   46   89 1
  93   46   90 1
  94   47   91 1
  95   47   92 1
  96   47   93 1
  97   48   49 2
  98   48   50 2

#	End of record

