#	Name: ASD07930638
#	Creating user name:	WinNT
#	Creation time:	15. 06. 2019 21:12

#	Modifying user name:	WinNT
#	Modification time:	15. 06. 2019 21:12

#	Program:	/corina/corina34_cracker 3.40 0067  02.08.2006

@<TRIPOS>MOLECULE
ASD07930638
  45   47    0    0    0
SMALL
NO_CHARGES


@<TRIPOS>ATOM
   1 C1            -0.0389     1.1020     0.0275 C.3     
   2 N2             0.7710     0.9828    -2.8431 N.2     
   3 N3            -0.3446     3.0306    -2.9968 N.pl3   
   4 C4            -1.7305     3.4051    -3.2969 C.3     
   5 C5            -2.5313     3.4712    -1.9891 C.3     
   6 S6            -2.3885     1.8619    -1.1500 S.o2    
   7 N7            -0.7451     1.5870    -1.1609 N.am    
   8 C8            -0.0783     1.8405    -2.3512 C.2     
   9 C9            -2.3527     2.3597    -4.2248 C.3     
  10 C10           -1.7530     4.7534    -3.9696 C.ar    
  11 C11           -0.5824     5.4708    -4.1166 C.ar    
  12 C12           -0.6037     6.7135    -4.7366 C.ar    
  13 C13           -1.8028     7.2317    -5.2074 C.ar    
  14 C14           -2.9716     6.5108    -5.0583 C.ar    
  15 C15           -2.9471     5.2697    -4.4450 C.ar    
  16 O16           -2.7221     1.9794     0.2263 O.2     
  17 O17           -2.9300     0.8236    -1.9549 O.2     
  18 N18            0.5814     7.4424    -4.8862 N.am    
  19 C19            0.7707     8.2034    -5.9823 C.2     
  20 O20           -0.0428     8.1815    -6.8854 O.2     
  21 C21            1.9680     9.0650    -6.0865 C.ar    
  22 N22            2.8597     9.0893    -5.0974 N.ar    
  23 F23           -4.0913     4.5662    -4.3001 F       
  24 C24            3.9246     9.8562    -5.1909 C.ar    
  25 C25            4.1205    10.6448    -6.3259 C.ar    
  26 N26            3.2336    10.6222    -7.3115 N.ar    
  27 C27            2.1673     9.8483    -7.2229 C.ar    
  28 O28            5.2175    11.4343    -6.4204 O.3     
  29 H29           -0.0280     0.0121     0.0241 H       
  30 H30            0.9850     1.4756     0.0195 H       
  31 H31           -0.5484     1.4575     0.9232 H       
  32 H32            0.9459     0.1509    -2.3760 H       
  33 H33            0.3839     3.6166    -3.2554 H       
  34 H34           -2.1270     4.2561    -1.3500 H       
  35 H35           -3.5784     3.6790    -2.2095 H       
  36 H36           -2.3376     1.3854    -3.7363 H       
  37 H37           -3.3826     2.6386    -4.4474 H       
  38 H38           -1.7812     2.3104    -5.1516 H       
  39 H39            0.3492     5.0661    -3.7493 H       
  40 H40           -1.8217     8.1979    -5.6895 H       
  41 H41           -3.9045     6.9136    -5.4240 H       
  42 H42            1.2667     7.3999    -4.2010 H       
  43 H43            4.6476     9.8758    -4.3888 H       
  44 H44            1.4449     9.8297    -8.0255 H       
  45 H45            5.9790    11.0021    -6.8309 H       
@<TRIPOS>BOND
   1    1   29 1
   2    1   30 1
   3    1   31 1
   4    1    7 1
   5    2    8 2
   6    2   32 1
   7    3    4 1
   8    3    8 1
   9    3   33 1
  10    4    5 1
  11    4    9 1
  12    4   10 1
  13    5    6 1
  14    5   34 1
  15    5   35 1
  16    6    7 am
  17    6   16 2
  18    6   17 2
  19    7    8 1
  20    9   36 1
  21    9   37 1
  22    9   38 1
  23   10   11 ar
  24   10   15 ar
  25   11   12 ar
  26   11   39 1
  27   12   13 ar
  28   12   18 1
  29   13   14 ar
  30   13   40 1
  31   14   15 ar
  32   14   41 1
  33   15   23 1
  34   18   19 am
  35   18   42 1
  36   19   20 2
  37   19   21 1
  38   21   22 ar
  39   21   27 ar
  40   22   24 ar
  41   24   25 ar
  42   24   43 1
  43   25   26 ar
  44   25   28 1
  45   26   27 ar
  46   27   44 1
  47   28   45 1

#	End of record

