#	Name: ASD01913312
#	Creating user name:	WinNT
#	Creation time:	15. 06. 2019 20:01

#	Modifying user name:	WinNT
#	Modification time:	15. 06. 2019 20:01

#	Program:	/corina/corina34_cracker 3.40 0067  02.08.2006

@<TRIPOS>MOLECULE
ASD01913312
  40   42    0    0    0
SMALL
NO_CHARGES


@<TRIPOS>ATOM
   1 C1            -0.0169     1.3918     0.0097 C.ar    
   2 C2             0.0021    -0.0041     0.0020 C.ar    
   3 C3             1.2386    -0.6669    -0.0134 C.ar    
   4 C4             2.3902     0.0942    -0.0204 C.ar    
   5 C5             2.2888     1.4813    -0.0119 C.ar    
   6 N6             1.1078     2.0779     0.0026 N.ar    
   7 O7             3.4173     2.2337    -0.0183 O.3     
   8 C8            -1.2216    -0.7479     0.0102 C.1     
   9 C9            -2.2247    -1.3577     0.0170 C.1     
  10 C10           -3.4484    -2.1015     0.0252 C.ar    
  11 C11           -3.4208    -3.4986     0.0174 C.ar    
  12 C12           -4.6034    -4.2083     0.0253 C.ar    
  13 C13           -5.8151    -3.5402     0.0405 C.ar    
  14 C14           -5.8503    -2.1568     0.0483 C.ar    
  15 C15           -4.6758    -1.4338     0.0468 C.ar    
  16 C16            3.2509     3.6530    -0.0091 C.3     
  17 C17            4.4388     4.3012     0.7048 C.3     
  18 C18            4.2606     5.8207     0.7146 C.3     
  19 C19            4.1879     6.3350    -0.7245 C.3     
  20 C20            3.0000     5.6868    -1.4384 C.3     
  21 C21            3.1782     4.1673    -1.4482 C.3     
  22 H22           -0.9622     1.9140     0.0170 H       
  23 H23            1.2883    -1.7458    -0.0193 H       
  24 H24            3.3594    -0.3822    -0.0318 H       
  25 H25           -2.4758    -4.0214     0.0048 H       
  26 H26           -4.5837    -5.2881     0.0193 H       
  27 H27           -6.7380    -4.1011     0.0459 H       
  28 H28           -6.7997    -1.6421     0.0597 H       
  29 H29           -4.7047    -0.3542     0.0528 H       
  30 H30            2.3294     3.9073     0.5147 H       
  31 H31            4.4906     3.9348     1.7301 H       
  32 H32            5.3603     4.0468     0.1811 H       
  33 H33            3.3391     6.0751     1.2384 H       
  34 H34            5.1069     6.2825     1.2232 H       
  35 H35            4.0610     7.4176    -0.7175 H       
  36 H36            5.1094     6.0806    -1.2482 H       
  37 H37            2.0785     5.9412    -0.9146 H       
  38 H38            2.9482     6.0532    -2.4636 H       
  39 H39            4.0997     3.9129    -1.9719 H       
  40 H40            2.3319     3.7055    -1.9568 H       
@<TRIPOS>BOND
   1    1    2 ar
   2    1    6 ar
   3    1   22 1
   4    2    3 ar
   5    2    8 1
   6    3    4 ar
   7    3   23 1
   8    4    5 ar
   9    4   24 1
  10    5    6 ar
  11    5    7 1
  12    7   16 1
  13    8    9 3
  14    9   10 1
  15   10   11 ar
  16   10   15 ar
  17   11   12 ar
  18   11   25 1
  19   12   13 ar
  20   12   26 1
  21   13   14 ar
  22   13   27 1
  23   14   15 ar
  24   14   28 1
  25   15   29 1
  26   16   17 1
  27   16   21 1
  28   16   30 1
  29   17   18 1
  30   17   31 1
  31   17   32 1
  32   18   19 1
  33   18   33 1
  34   18   34 1
  35   19   20 1
  36   19   35 1
  37   19   36 1
  38   20   21 1
  39   20   37 1
  40   20   38 1
  41   21   39 1
  42   21   40 1

#	End of record

