#	Name: ASD08170019
#	Creating user name:	WinNT
#	Creation time:	15. 06. 2019 21:17

#	Modifying user name:	WinNT
#	Modification time:	15. 06. 2019 21:17

#	Program:	/corina/corina34_cracker 3.40 0067  02.08.2006

@<TRIPOS>MOLECULE
ASD08170019
  29   30    0    0    0
SMALL
NO_CHARGES


@<TRIPOS>ATOM
   1 C1            -0.0156     1.2982     0.0092 C.2     
   2 N2             0.0021    -0.0041     0.0020 N.2     
   3 N3            -1.1071    -0.6039     0.0094 N.2     
   4 C4            -2.1838     0.1123     0.0235 C.2     
   5 S5            -1.7043     1.8107     0.0358 S.3     
   6 N6             1.0928     2.1319     0.0031 N.pl3   
   7 C7            -3.5971    -0.4107     0.0342 C.3     
   8 C8            -4.0618    -0.5948     1.4802 C.3     
   9 S9            -5.7631    -1.2243     1.4931 S.3     
  10 C10           -6.1291    -1.3747     3.2634 C.3     
  11 C11           -7.5532    -1.9032     3.4466 C.3     
  12 C12           -7.8574    -2.0281     4.9173 C.2     
  13 N13           -8.3741    -1.1110     5.6684 N.2     
  14 N14           -8.5644    -1.3810     6.8854 N.2     
  15 C15           -8.2258    -2.5681     7.3006 C.2     
  16 S16           -7.5785    -3.4545     5.9184 S.3     
  17 N17           -8.3560    -3.0507     8.5944 N.pl3   
  18 H18            1.9853     1.7521    -0.0078 H       
  19 H19            0.9756     3.0948     0.0097 H       
  20 H20           -4.2515     0.3004    -0.4700 H       
  21 H21           -3.6339    -1.3689    -0.4841 H       
  22 H22           -3.4075    -1.3059     1.9844 H       
  23 H23           -4.0251     0.3634     1.9985 H       
  24 H24           -5.4230    -2.0663     3.7230 H       
  25 H25           -6.0406    -0.3970     3.7370 H       
  26 H26           -8.2593    -1.2116     2.9870 H       
  27 H27           -7.6417    -2.8809     2.9729 H       
  28 H28           -8.7300    -2.4849     9.2878 H       
  29 H29           -8.0731    -3.9541     8.8058 H       
@<TRIPOS>BOND
   1    1    2 2
   2    1    6 1
   3    1    5 1
   4    2    3 1
   5    3    4 2
   6    4    5 1
   7    4    7 1
   8    6   18 1
   9    6   19 1
  10    7    8 1
  11    7   20 1
  12    7   21 1
  13    8    9 1
  14    8   22 1
  15    8   23 1
  16    9   10 1
  17   10   11 1
  18   10   24 1
  19   10   25 1
  20   11   12 1
  21   11   26 1
  22   11   27 1
  23   12   13 2
  24   12   16 1
  25   13   14 1
  26   14   15 2
  27   15   16 1
  28   15   17 1
  29   17   28 1
  30   17   29 1

#	End of record

