#	Name: ASD02198847
#	Creating user name:	WinNT
#	Creation time:	15. 06. 2019 20:20

#	Modifying user name:	WinNT
#	Modification time:	15. 06. 2019 20:20

#	Program:	/corina/corina34_cracker 3.40 0067  02.08.2006

@<TRIPOS>MOLECULE
ASD02198847
  48   52    0    0    0
SMALL
NO_CHARGES


@<TRIPOS>ATOM
   1 F1             2.2534    -1.7097     2.4707 F       
   2 C2            -0.0433     1.5017    -0.1149 C.2     
   3 C3            -0.0730     0.1620     0.0976 C.2     
   4 N4             1.0714    -0.5396     0.2599 N.pl3   
   5 N5             2.2359    -0.0048     0.2263 N.2     
   6 C6             2.4074     1.2846     0.0281 C.2     
   7 C7             1.2216     2.1357    -0.1604 C.2     
   8 C8             0.9800    -1.9182     0.4759 C.ar    
   9 C9             1.5812    -2.4882     1.5947 C.ar    
  10 C10            1.4908    -3.8495     1.8087 C.ar    
  11 C11            0.7976    -4.6509     0.9041 C.ar    
  12 C12            0.1967    -4.0772    -0.2152 C.ar    
  13 C13            0.2841    -2.7172    -0.4235 C.ar    
  14 C14            3.7644     1.8669    -0.0046 C.2     
  15 N15            4.3062     2.6070    -1.0177 N.pl3   
  16 N16            5.6081     2.9586    -0.6400 N.2     
  17 C17            5.8520     2.4590     0.5453 C.2     
  18 C18            4.7202     1.7712     0.9830 C.2     
  19 C19            3.6731     2.9517    -2.2186 C.ar    
  20 C20            3.8068     4.2349    -2.7321 C.ar    
  21 C21            3.1814     4.5725    -3.9166 C.ar    
  22 C22            2.4222     3.6346    -4.5912 C.ar    
  23 C23            2.2862     2.3545    -4.0822 C.ar    
  24 C24            2.9151     2.0092    -2.9009 C.ar    
  25 O25            1.3245     3.3388    -0.3483 O.2     
  26 C26            0.6995    -6.1145     1.1318 C.2     
  27 C27            1.2537    -6.8278     2.2126 C.2     
  28 N28            0.9537    -8.0907     2.0621 N.2     
  29 N29            0.2025    -8.2328     0.8891 N.pl3   
  30 C30            0.0511    -7.0128     0.3351 C.2     
  31 C31           -0.3323    -9.4894     0.3587 C.3     
  32 F32           -0.6032   -10.3642     1.4163 F       
  33 F33           -1.5120    -9.2326    -0.3481 F       
  34 Cl34           1.3315     1.1799    -4.9322 Cl      
  35 H35           -0.9547     2.0653    -0.2494 H       
  36 H36           -1.0229    -0.3504     0.1379 H       
  37 H37            1.9573    -4.2924     2.6762 H       
  38 H38           -0.3408    -4.6976    -0.9170 H       
  39 H39           -0.1818    -2.2733    -1.2909 H       
  40 H40            6.7757     2.5648     1.0949 H       
  41 H41            4.6145     1.2514     1.9237 H       
  42 H42            4.3990     4.9686    -2.2055 H       
  43 H43            3.2854     5.5705    -4.3160 H       
  44 H44            1.9340     3.9011    -5.5169 H       
  45 H45            2.8090     1.0104    -2.5038 H       
  46 H46            1.8270    -6.4047     3.0242 H       
  47 H47           -0.4806    -6.7884    -0.5777 H       
  48 H48            0.4001    -9.9427    -0.3093 H       
@<TRIPOS>BOND
   1    1    9 1
   2    2    3 2
   3    2    7 1
   4    2   35 1
   5    3    4 1
   6    3   36 1
   7    4    5 1
   8    4    8 1
   9    5    6 2
  10    6    7 1
  11    6   14 1
  12    7   25 2
  13    8    9 ar
  14    8   13 ar
  15    9   10 ar
  16   10   11 ar
  17   10   37 1
  18   11   12 ar
  19   11   26 1
  20   12   13 ar
  21   12   38 1
  22   13   39 1
  23   14   15 1
  24   14   18 2
  25   15   16 1
  26   15   19 1
  27   16   17 2
  28   17   18 1
  29   17   40 1
  30   18   41 1
  31   19   20 ar
  32   19   24 ar
  33   20   21 ar
  34   20   42 1
  35   21   22 ar
  36   21   43 1
  37   22   23 ar
  38   22   44 1
  39   23   24 ar
  40   23   34 1
  41   24   45 1
  42   26   27 1
  43   26   30 2
  44   27   28 2
  45   27   46 1
  46   28   29 1
  47   29   30 1
  48   29   31 1
  49   30   47 1
  50   31   32 1
  51   31   33 1
  52   31   48 1

#	End of record

