#	Name: ASD01883094
#	Creating user name:	WinNT
#	Creation time:	15. 06. 2019 19:45

#	Modifying user name:	WinNT
#	Modification time:	15. 06. 2019 19:45

#	Program:	/corina/corina34_cracker 3.40 0067  02.08.2006

@<TRIPOS>MOLECULE
ASD01883094
  44   46    0    0    0
SMALL
NO_CHARGES


@<TRIPOS>ATOM
   1 N1            -0.0162     1.3417     0.0094 N.am    
   2 C2             0.0021    -0.0041     0.0020 C.2     
   3 C3            -1.2161    -0.7274     0.0102 C.2     
   4 C4            -2.4261    -0.0112     0.0261 C.2     
   5 C5            -2.3786     1.3968     0.0332 C.2     
   6 C6            -1.1850     2.0325     0.0299 C.2     
   7 O7             1.0657    -0.6000    -0.0122 O.2     
   8 C8            -1.2151    -2.1594     0.0021 C.1     
   9 N9            -1.2144    -3.2953    -0.0044 N.1     
  10 C10            1.2513     2.0764     0.0013 C.3     
  11 C11           -3.7218    -0.7213     0.0347 C.ar    
  12 C12            1.6787     2.3399    -1.4440 C.3     
  13 O13            0.7333     3.2101    -2.0692 O.3     
  14 C14            0.9671     3.5463    -3.3650 C.ar    
  15 C15            0.0898     4.3875    -4.0338 C.ar    
  16 C16            0.3297     4.7278    -5.3510 C.ar    
  17 C17            1.4431     4.2307    -6.0029 C.ar    
  18 C18            2.3188     3.3917    -5.3387 C.ar    
  19 C19            2.0866     3.0534    -4.0196 C.ar    
  20 C20           -4.5708    -0.6162     1.1391 C.ar    
  21 C21           -5.7778    -1.2797     1.1433 C.ar    
  22 C22           -6.1513    -2.0534     0.0510 C.ar    
  23 C23           -5.3094    -2.1609    -1.0494 C.ar    
  24 C24           -4.1037    -1.4950    -1.0640 C.ar    
  25 O25           -7.3417    -2.7063     0.0591 O.3     
  26 C26           -7.6630    -3.4838    -1.0960 C.3     
  27 H27           -3.2949     1.9683     0.0453 H       
  28 H28           -1.1610     3.1122     0.0354 H       
  29 H29            1.1242     3.0258     0.5214 H       
  30 H30            2.0168     1.4859     0.5046 H       
  31 H31            2.6634     2.8072    -1.4522 H       
  32 H32            1.7197     1.3965    -1.9885 H       
  33 H33           -0.7802     4.7758    -3.5252 H       
  34 H34           -0.3532     5.3823    -5.8722 H       
  35 H35            1.6290     4.4978    -7.0327 H       
  36 H36            3.1874     3.0041    -5.8503 H       
  37 H37            2.7709     2.3981    -3.5012 H       
  38 H38           -4.2809    -0.0157     1.9887 H       
  39 H39           -6.4347    -1.1990     1.9968 H       
  40 H40           -5.6031    -2.7634    -1.8962 H       
  41 H41           -3.4501    -1.5788    -1.9197 H       
  42 H42           -7.6895    -2.8373    -1.9733 H       
  43 H43           -6.9064    -4.2558    -1.2363 H       
  44 H44           -8.6382    -3.9512    -0.9596 H       
@<TRIPOS>BOND
   1    1    2 am
   2    1   10 1
   3    1    6 1
   4    2    3 1
   5    2    7 2
   6    3    4 2
   7    3    8 1
   8    4    5 1
   9    4   11 1
  10    5    6 2
  11    5   27 1
  12    6   28 1
  13    8    9 3
  14   10   12 1
  15   10   29 1
  16   10   30 1
  17   11   20 ar
  18   11   24 ar
  19   12   13 1
  20   12   31 1
  21   12   32 1
  22   13   14 1
  23   14   15 ar
  24   14   19 ar
  25   15   16 ar
  26   15   33 1
  27   16   17 ar
  28   16   34 1
  29   17   18 ar
  30   17   35 1
  31   18   19 ar
  32   18   36 1
  33   19   37 1
  34   20   21 ar
  35   20   38 1
  36   21   22 ar
  37   21   39 1
  38   22   23 ar
  39   22   25 1
  40   23   24 ar
  41   23   40 1
  42   24   41 1
  43   25   26 1
  44   26   42 1
  45   26   43 1
  46   26   44 1

#	End of record

