#	Name: ASD02030276
#	Creating user name:	WinNT
#	Creation time:	15. 06. 2019 20:15

#	Modifying user name:	WinNT
#	Modification time:	15. 06. 2019 20:15

#	Program:	/corina/corina34_cracker 3.40 0067  02.08.2006

@<TRIPOS>MOLECULE
ASD02030276
  52   56    0    0    0
SMALL
NO_CHARGES


@<TRIPOS>ATOM
   1 N1            -1.4898     1.2209    -2.0478 N.am    
   2 C2            -1.5066    -0.2427    -1.9152 C.3     
   3 C3            -1.4966    -0.5997    -0.4236 C.3     
   4 N4            -2.5382     0.1849     0.2541 N.am    
   5 C5            -2.5214     1.6485     0.1214 C.3     
   6 C6            -2.5282     2.0059    -1.3655 C.3     
   7 C7            -0.5360     1.8326    -2.7776 C.2     
   8 C8             0.5745     1.0440    -3.3522 C.2     
   9 N9             1.6264     1.5293    -3.9758 N.2     
  10 N10            0.6905    -0.2964    -3.3245 N.2     
  11 C11            1.8066    -0.6029    -3.9354 C.2     
  12 N12            2.3811     0.5494    -4.3372 N.pl3   
  13 C13            3.5938     0.6619    -5.0306 C.ar    
  14 O14           -0.5889     3.0328    -2.9632 O.2     
  15 C15           -3.4920    -0.4268     0.9838 C.2     
  16 C16           -3.5724    -1.8942     1.0060 C.2     
  17 O17           -4.2865     0.2356     1.6241 O.2     
  18 C18            4.0772     1.9132    -5.3875 C.ar    
  19 C19            5.2739     2.0208    -6.0715 C.ar    
  20 C20            5.9886     0.8824    -6.4003 C.ar    
  21 C21            5.5084    -0.3650    -6.0460 C.ar    
  22 C22            4.3170    -0.4780    -5.3569 C.ar    
  23 C23           -2.2404     3.4988    -1.5361 C.3     
  24 S24           -2.2357    -2.9611     1.3988 S.3     
  25 C25           -3.2414    -4.3871     1.1698 C.ar    
  26 C26           -4.5361    -3.9945     0.8085 C.ar    
  27 C27           -4.6754    -2.5994     0.7352 C.2     
  28 C28           -2.9345    -5.7464     1.2933 C.ar    
  29 C29           -3.8993    -6.6969     1.0607 C.ar    
  30 C30           -5.1855    -6.3138     0.7015 C.ar    
  31 C31           -5.5085    -4.9982     0.5759 C.ar    
  32 Cl32          -7.1231    -4.5462     0.1259 Cl      
  33 Cl33           5.8799     3.5849    -6.5186 Cl      
  34 H34           -2.4077    -0.6419    -2.3808 H       
  35 H35           -0.6249    -0.6639    -2.3981 H       
  36 H36           -1.7015    -1.6632    -0.3006 H       
  37 H37           -0.5226    -0.3605     0.0032 H       
  38 H38           -3.4032     2.0697     0.6043 H       
  39 H39           -1.6204     2.0477     0.5871 H       
  40 H40           -3.5012     1.7669    -1.7948 H       
  41 H41            2.1983    -1.5979    -4.0873 H       
  42 H42            3.5191     2.8016    -5.1314 H       
  43 H43            6.9231     0.9684    -6.9349 H       
  44 H44            6.0681    -1.2518    -6.3046 H       
  45 H45            3.9430    -1.4527    -5.0803 H       
  46 H46           -1.2033     3.7018    -1.2693 H       
  47 H47           -2.4114     3.7856    -2.5737 H       
  48 H48           -2.9016     4.0728    -0.8869 H       
  49 H49           -5.6099    -2.1274     0.4699 H       
  50 H50           -1.9362    -6.0498     1.5719 H       
  51 H51           -3.6568    -7.7449     1.1572 H       
  52 H52           -5.9369    -7.0682     0.5204 H       
@<TRIPOS>BOND
   1    1    2 1
   2    1    7 am
   3    1    6 1
   4    2    3 1
   5    2   34 1
   6    2   35 1
   7    3    4 1
   8    3   36 1
   9    3   37 1
  10    4    5 1
  11    4   15 am
  12    5    6 1
  13    5   38 1
  14    5   39 1
  15    6   23 1
  16    6   40 1
  17    7    8 1
  18    7   14 2
  19    8    9 2
  20    8   10 1
  21    9   12 1
  22   10   11 2
  23   11   12 1
  24   11   41 1
  25   12   13 1
  26   13   18 ar
  27   13   22 ar
  28   15   16 1
  29   15   17 2
  30   16   24 1
  31   16   27 2
  32   18   19 ar
  33   18   42 1
  34   19   20 ar
  35   19   33 1
  36   20   21 ar
  37   20   43 1
  38   21   22 ar
  39   21   44 1
  40   22   45 1
  41   23   46 1
  42   23   47 1
  43   23   48 1
  44   24   25 1
  45   25   26 ar
  46   25   28 ar
  47   26   27 1
  48   26   31 ar
  49   27   49 1
  50   28   29 ar
  51   28   50 1
  52   29   30 ar
  53   29   51 1
  54   30   31 ar
  55   30   52 1
  56   31   32 1

#	End of record

