#	Name: ASD03331724
#	Creating user name:	WinNT
#	Creation time:	15. 06. 2019 20:39

#	Modifying user name:	WinNT
#	Modification time:	15. 06. 2019 20:39

#	Program:	/corina/corina34_cracker 3.40 0067  02.08.2006

@<TRIPOS>MOLECULE
ASD03331724
  56   60    0    0    0
SMALL
NO_CHARGES


@<TRIPOS>ATOM
   1 C1            -0.0189     1.5418     0.0105 C.3     
   2 C2             0.0021    -0.0041     0.0020 C.3     
   3 C3             1.4670     1.9573    -0.0014 C.3     
   4 C4             2.2507     0.6247    -0.0160 C.3     
   5 N5             1.3173    -0.3550     0.6010 N.3     
   6 C6             1.2871    -0.2053     2.0620 C.3     
   7 C7             0.0314    -0.4658    -1.4638 C.3     
   8 C8             2.4435     0.2086    -1.4831 C.3     
   9 C9             1.1030     0.3311    -2.2133 C.3     
  10 C10            1.2432    -0.2103    -3.6127 C.ar    
  11 C11            1.0075     0.6118    -4.6987 C.ar    
  12 C12            1.1361     0.1152    -5.9823 C.ar    
  13 C13            1.5007    -1.2034    -6.1800 C.ar    
  14 C14            1.7373    -2.0253    -5.0940 C.ar    
  15 C15            1.6129    -1.5275    -3.8103 C.ar    
  16 C16            1.6399    -1.7451    -7.5793 C.3     
  17 C17            0.3608    -1.9351    -1.5237 C.2     
  18 N18            1.4578    -3.7201    -1.2491 N.2     
  19 O19            1.4714    -2.5260    -1.0602 O.3     
  20 C20           -0.4090    -2.9144    -2.0501 C.2     
  21 C21            0.3574    -4.0967    -1.8517 C.2     
  22 C22           -0.0151    -5.4780    -2.2472 C.ar    
  23 C23           -1.5682    -7.0044    -3.2572 C.ar    
  24 C24           -1.2269    -5.7181    -2.8913 C.ar    
  25 C25            0.8483    -6.5384    -1.9806 C.ar    
  26 C26            0.4971    -7.8209    -2.3509 C.ar    
  27 C27           -0.7093    -8.0542    -2.9859 C.ar    
  28 C28           -1.0876    -9.4566    -3.3873 C.3     
  29 H29           -0.5254     1.9192    -0.8778 H       
  30 H30           -0.5083     1.9096     0.9123 H       
  31 H31           -0.8380    -0.4307     0.5501 H       
  32 H32            1.6910     2.5389    -0.8957 H       
  33 H33            1.7081     2.5294     0.8945 H       
  34 H34            3.1932     0.6948     0.5271 H       
  35 H35            0.9540     0.8007     2.3174 H       
  36 H36            0.5985    -0.9350     2.4879 H       
  37 H37            2.2864    -0.3703     2.4649 H       
  38 H38           -0.9419    -0.2892    -1.9217 H       
  39 H39            3.1772     0.8624    -1.9546 H       
  40 H40            2.7903    -0.8238    -1.5272 H       
  41 H41            0.8094     1.3798    -2.2588 H       
  42 H42            0.7226     1.6421    -4.5443 H       
  43 H43            0.9512     0.7574    -6.8308 H       
  44 H44            2.0219    -3.0557    -5.2484 H       
  45 H45            1.8014    -2.1687    -2.9619 H       
  46 H46            2.6636    -1.6007    -7.9247 H       
  47 H47            1.4020    -2.8088    -7.5825 H       
  48 H48            0.9547    -1.2176    -8.2429 H       
  49 H49           -1.3803    -2.8209    -2.5130 H       
  50 H50           -2.5075    -7.1916    -3.7563 H       
  51 H51           -1.8982    -4.8991    -3.1037 H       
  52 H52            1.7909    -6.3573    -1.4855 H       
  53 H53            1.1657    -8.6436    -2.1447 H       
  54 H54           -0.7227    -9.6570    -4.3947 H       
  55 H55           -0.6411   -10.1667    -2.6912 H       
  56 H56           -2.1724    -9.5604    -3.3664 H       
@<TRIPOS>BOND
   1    1    2 1
   2    1    3 1
   3    1   29 1
   4    1   30 1
   5    2    7 1
   6    2    5 1
   7    2   31 1
   8    3    4 1
   9    3   32 1
  10    3   33 1
  11    4    5 1
  12    4    8 1
  13    4   34 1
  14    5    6 1
  15    6   35 1
  16    6   36 1
  17    6   37 1
  18    7    9 1
  19    7   17 1
  20    7   38 1
  21    8    9 1
  22    8   39 1
  23    8   40 1
  24    9   10 1
  25    9   41 1
  26   10   11 ar
  27   10   15 ar
  28   11   12 ar
  29   11   42 1
  30   12   13 ar
  31   12   43 1
  32   13   14 ar
  33   13   16 1
  34   14   15 ar
  35   14   44 1
  36   15   45 1
  37   16   46 1
  38   16   47 1
  39   16   48 1
  40   17   20 2
  41   17   19 1
  42   18   19 1
  43   18   21 2
  44   20   21 1
  45   20   49 1
  46   21   22 1
  47   22   25 ar
  48   22   24 ar
  49   23   24 ar
  50   23   27 ar
  51   23   50 1
  52   24   51 1
  53   25   26 ar
  54   25   52 1
  55   26   27 ar
  56   26   53 1
  57   27   28 1
  58   28   54 1
  59   28   55 1
  60   28   56 1

#	End of record

