#	Name: ASD01901413
#	Creating user name:	WinNT
#	Creation time:	15. 06. 2019 19:53

#	Modifying user name:	WinNT
#	Modification time:	15. 06. 2019 19:53

#	Program:	/corina/corina34_cracker 3.40 0067  02.08.2006

@<TRIPOS>MOLECULE
ASD01901413
  40   43    0    0    0
SMALL
NO_CHARGES


@<TRIPOS>ATOM
   1 C1            -0.0168     1.3894     0.0097 C.ar    
   2 C2             1.1697     2.0941     0.0021 C.ar    
   3 C3             2.3776     1.4206    -0.0135 C.ar    
   4 C4             2.4034     0.0356    -0.0212 C.ar    
   5 C5             1.2200    -0.6794    -0.0137 C.ar    
   6 C6             0.0021    -0.0041     0.0020 C.ar    
   7 C7            -1.2716    -0.7660     0.0106 C.2     
   8 N8            -3.1805    -1.5352    -1.1465 N.2     
   9 C9            -2.0564    -0.8617    -1.1592 C.2     
  10 C10           -1.6985    -1.3895     1.1495 C.2     
  11 N11           -2.8732    -2.0810     1.1230 N.pl3   
  12 C12           -3.6099    -2.1458    -0.0317 C.2     
  13 C13           -3.5504    -2.7941     2.0753 C.2     
  14 C14           -4.6695    -3.2723     1.4914 C.2     
  15 N15           -4.6919    -2.8694     0.2174 N.2     
  16 C16           -5.7200    -4.1175     2.1647 C.3     
  17 O17           -5.3512    -4.3396     3.5273 O.3     
  18 C18           -6.1963    -5.0880     4.2800 C.ar    
  19 C19           -5.8951    -5.3341     5.6136 C.ar    
  20 N20           -7.3016    -5.5718     3.7385 N.ar    
  21 C21           -8.1508    -6.3038     4.4346 C.ar    
  22 C22           -7.9124    -6.5922     5.7634 C.ar    
  23 C23           -6.7656    -6.0985     6.3705 C.ar    
  24 C24           -1.3314     2.1258     0.0325 C.3     
  25 F25            3.5862    -0.6171    -0.0364 F       
  26 H26            1.1550     3.1740     0.0081 H       
  27 H27            3.3036     1.9763    -0.0200 H       
  28 H28            1.2401    -1.7592    -0.0204 H       
  29 H29           -1.7293    -0.3778    -2.0676 H       
  30 H30           -1.1142    -1.3355     2.0562 H       
  31 H31           -3.2465    -2.9455     3.1006 H       
  32 H32           -6.6798    -3.6022     2.1274 H       
  33 H33           -5.8012    -5.0747     1.6496 H       
  34 H34           -4.9935    -4.9344     6.0538 H       
  35 H35           -9.0436    -6.6817     3.9589 H       
  36 H36           -8.6128    -7.1917     6.3260 H       
  37 H37           -6.5574    -6.3066     7.4096 H       
  38 H38           -1.6336     2.2979     1.0655 H       
  39 H39           -1.2208     3.0825    -0.4779 H       
  40 H40           -2.0907     1.5296    -0.4737 H       
@<TRIPOS>BOND
   1    1    6 ar
   2    1    2 ar
   3    1   24 1
   4    2    3 ar
   5    2   26 1
   6    3    4 ar
   7    3   27 1
   8    4    5 ar
   9    4   25 1
  10    5    6 ar
  11    5   28 1
  12    6    7 1
  13    7   10 2
  14    7    9 1
  15    8    9 2
  16    8   12 1
  17    9   29 1
  18   10   11 1
  19   10   30 1
  20   11   13 1
  21   11   12 1
  22   12   15 2
  23   13   14 2
  24   13   31 1
  25   14   15 1
  26   14   16 1
  27   16   17 1
  28   16   32 1
  29   16   33 1
  30   17   18 1
  31   18   20 ar
  32   18   19 ar
  33   19   23 ar
  34   19   34 1
  35   20   21 ar
  36   21   22 ar
  37   21   35 1
  38   22   23 ar
  39   22   36 1
  40   23   37 1
  41   24   38 1
  42   24   39 1
  43   24   40 1

#	End of record

