#	Name: ASD01890579
#	Creating user name:	WinNT
#	Creation time:	15. 06. 2019 19:51

#	Modifying user name:	WinNT
#	Modification time:	15. 06. 2019 19:51

#	Program:	/corina/corina34_cracker 3.40 0067  02.08.2006

@<TRIPOS>MOLECULE
ASD01890579
  34   36    0    0    0
SMALL
NO_CHARGES


@<TRIPOS>ATOM
   1 C1            -0.0184     1.5084     0.0103 C.2     
   2 C2             0.0021    -0.0041     0.0020 C.3     
   3 C3            -0.8921    -0.5103     1.1413 C.3     
   4 C4            -2.2769     0.1358     1.0043 C.3     
   5 C5            -2.1019     1.6363     0.9266 C.2     
   6 O6             1.0093     2.1435     0.0039 O.2     
   7 O7            -2.7304     2.3731     1.6490 O.2     
   8 O8            -1.2209     2.1304     0.0195 O.3     
   9 C9            -1.2622    -4.7624     0.8920 C.ar    
  10 C10           -0.7163    -4.1736     2.0308 C.ar    
  11 C11           -0.5995    -2.8004     2.1060 C.ar    
  12 C12           -1.0227    -2.0090     1.0535 C.ar    
  13 C13           -1.5658    -2.5882    -0.0792 C.ar    
  14 C14           -1.6873    -3.9603    -0.1651 C.ar    
  15 C15           -1.3848    -6.2385     0.8028 C.ar    
  16 C16           -1.9306    -6.8273    -0.3360 C.ar    
  17 C17           -2.0423    -8.2008    -0.4136 C.ar    
  18 C18           -1.6138    -8.9925     0.6366 C.ar    
  19 C19           -1.0716    -8.4133     1.7697 C.ar    
  20 C20           -0.9491    -7.0412     1.8552 C.ar    
  21 H21           -0.3778    -0.3701    -0.9518 H       
  22 H22            1.0222    -0.3572     0.1528 H       
  23 H23           -0.4534    -0.2348     2.1003 H       
  24 H24           -2.7604    -0.2239     0.0960 H       
  25 H25           -2.8864    -0.1173     1.8717 H       
  26 H26           -0.3856    -4.7906     2.8532 H       
  27 H27           -0.1765    -2.3430     2.9882 H       
  28 H28           -1.8950    -1.9656    -0.8980 H       
  29 H29           -2.1109    -4.4116    -1.0503 H       
  30 H30           -2.2661    -6.2101    -1.1563 H       
  31 H31           -2.4652    -8.6582    -1.2958 H       
  32 H32           -1.7034   -10.0668     0.5719 H       
  33 H33           -0.7390    -9.0361     2.5869 H       
  34 H34           -0.5208    -6.5902     2.7381 H       
@<TRIPOS>BOND
   1    1    2 1
   2    1    6 2
   3    1    8 1
   4    2    3 1
   5    2   21 1
   6    2   22 1
   7    3    4 1
   8    3   12 1
   9    3   23 1
  10    4    5 1
  11    4   24 1
  12    4   25 1
  13    5    7 2
  14    5    8 1
  15    9   10 ar
  16    9   14 ar
  17    9   15 1
  18   10   11 ar
  19   10   26 1
  20   11   12 ar
  21   11   27 1
  22   12   13 ar
  23   13   14 ar
  24   13   28 1
  25   14   29 1
  26   15   16 ar
  27   15   20 ar
  28   16   17 ar
  29   16   30 1
  30   17   18 ar
  31   17   31 1
  32   18   19 ar
  33   18   32 1
  34   19   20 ar
  35   19   33 1
  36   20   34 1

#	End of record

