#	Name: ASD01820005
#	Creating user name:	WinNT
#	Creation time:	15. 06. 2019 19:36

#	Modifying user name:	WinNT
#	Modification time:	15. 06. 2019 19:36

#	Program:	/corina/corina34_cracker 3.40 0067  02.08.2006

@<TRIPOS>MOLECULE
ASD01820005
  54   57    0    0    0
SMALL
NO_CHARGES


@<TRIPOS>ATOM
   1 N1             1.5199     2.7384     2.9011 N.3     
   2 C2             1.8878     1.5237     3.6407 C.3     
   3 C3             2.1894     0.3965     2.6474 C.3     
   4 N4             3.2012     0.8735     1.6926 N.am    
   5 C5             2.9662     2.1563     1.0125 C.3     
   6 C6             2.6340     3.2142     2.0702 C.3     
   7 C7             1.0575     3.7915     3.8149 C.3     
   8 C8             4.3145     0.1545     1.4475 C.2     
   9 O9             4.4923    -0.9011     2.0176 O.2     
  10 C10            5.3384     0.6621     0.4652 C.3     
  11 O11            6.4186    -0.2695     0.3789 O.3     
  12 C12            7.4336     0.0400    -0.4694 C.ar    
  13 C13            7.3920     1.2126    -1.1945 C.ar    
  14 C14            8.5192    -0.8258    -0.6017 C.ar    
  15 C15            9.5411    -0.5263    -1.4475 C.ar    
  16 C16            8.4342     1.5370    -2.0699 C.ar    
  17 S17            8.6468     2.9419    -3.1065 S.3     
  18 C18            9.5203     0.6665    -2.2060 C.ar    
  19 C19           10.5039     1.1627    -3.1545 C.2     
  20 C20           10.1827     2.3561    -3.7138 C.2     
  21 Cl21           8.5664    -2.2960     0.3202 Cl      
  22 C22           10.7059    -1.4736    -1.5769 C.3     
  23 N23           11.6728     0.4778    -3.4570 N.pl3   
  24 C24           10.9828     3.0383    -4.6626 C.2     
  25 O25           12.0388     2.5546    -5.0289 O.2     
  26 N26           10.5755     4.2228    -5.1602 N.am    
  27 C27           11.4031     4.9285    -6.1417 C.3     
  28 C28           10.6997     5.9027    -7.0888 C.3     
  29 C29           11.5832     6.4369    -5.9597 C.3     
  30 H30            2.7720     1.7207     4.2468 H       
  31 H31            1.0617     1.2274     4.2873 H       
  32 H32            2.5727    -0.4715     3.1839 H       
  33 H33            1.2790     0.1269     2.1120 H       
  34 H34            3.8631     2.4518     0.4681 H       
  35 H35            2.1305     2.0559     0.3200 H       
  36 H36            2.3492     4.1440     1.5777 H       
  37 H37            3.5079     3.3877     2.6982 H       
  38 H38            1.8534     4.0378     4.5178 H       
  39 H39            0.7917     4.6794     3.2413 H       
  40 H40            0.1844     3.4387     4.3638 H       
  41 H41            4.8764     0.7745    -0.5156 H       
  42 H42            5.7171     1.6274     0.8013 H       
  43 H43            6.5518     1.8825    -1.0864 H       
  44 H44           10.5533    -2.1214    -2.4402 H       
  45 H45           11.6253    -0.9032    -1.7087 H       
  46 H46           10.7816    -2.0816    -0.6753 H       
  47 H47           11.7147    -0.4844    -3.3420 H       
  48 H48           12.4477     0.9615    -3.7833 H       
  49 H49            9.7344     4.6080    -4.8685 H       
  50 H50           12.2481     4.3644    -6.5365 H       
  51 H51           11.0822     5.9798    -8.1066 H       
  52 H52            9.6212     6.0185    -6.9817 H       
  53 H53           11.0860     6.9042    -5.1098 H       
  54 H54           12.5470     6.8655    -6.2347 H       
@<TRIPOS>BOND
   1    1    2 1
   2    1    6 1
   3    1    7 1
   4    2    3 1
   5    2   30 1
   6    2   31 1
   7    3    4 1
   8    3   32 1
   9    3   33 1
  10    4    5 1
  11    4    8 am
  12    5    6 1
  13    5   34 1
  14    5   35 1
  15    6   36 1
  16    6   37 1
  17    7   38 1
  18    7   39 1
  19    7   40 1
  20    8    9 2
  21    8   10 1
  22   10   11 1
  23   10   41 1
  24   10   42 1
  25   11   12 1
  26   12   14 ar
  27   12   13 ar
  28   13   16 ar
  29   13   43 1
  30   14   15 ar
  31   14   21 1
  32   15   18 ar
  33   15   22 1
  34   16   18 ar
  35   16   17 1
  36   17   20 1
  37   18   19 1
  38   19   20 2
  39   19   23 1
  40   20   24 1
  41   22   44 1
  42   22   45 1
  43   22   46 1
  44   23   47 1
  45   23   48 1
  46   24   25 2
  47   24   26 am
  48   26   27 1
  49   26   49 1
  50   27   28 1
  51   27   29 1
  52   27   50 1
  53   28   29 1
  54   28   51 1
  55   28   52 1
  56   29   53 1
  57   29   54 1

#	End of record

