#	Name: ASD03430763
#	Creating user name:	WinNT
#	Creation time:	15. 06. 2019 20:41

#	Modifying user name:	WinNT
#	Modification time:	15. 06. 2019 20:41

#	Program:	/corina/corina34_cracker 3.40 0067  02.08.2006

@<TRIPOS>MOLECULE
ASD03430763
  34   38    0    0    0
SMALL
NO_CHARGES


@<TRIPOS>ATOM
   1 C1            -0.0166     1.3733     0.0096 C.ar    
   2 C2             0.0021    -0.0041     0.0020 C.ar    
   3 C3             1.2044    -0.6795    -0.0032 C.ar    
   4 C4             2.4066     0.0234     0.0068 C.ar    
   5 C5             2.3788     1.4129     0.0035 C.ar    
   6 C6             1.1695     2.0976     0.0022 C.ar    
   7 O7             3.4730    -0.8257     0.0339 O.3     
   8 C8             1.5605    -2.1409    -0.0285 C.3     
   9 C9             3.0511    -2.1339    -0.3960 C.3     
  10 C10            0.4402    -3.8637     1.0193 C.ar    
  11 C11            1.3129    -2.8128     1.2896 C.ar    
  12 C12            0.7457    -2.9114    -1.0273 C.2     
  13 N13            0.1290    -3.8952    -0.3427 N.am    
  14 O14            0.6594    -2.6914    -2.2169 O.2     
  15 C15            1.7569    -2.5827     2.5725 C.ar    
  16 C16            1.3388    -3.3997     3.6081 C.ar    
  17 C17            0.4741    -4.4477     3.3520 C.ar    
  18 C18            0.0248    -4.6822     2.0676 C.ar    
  19 C19           -1.1520     2.3777     0.0366 C.3     
  20 C20           -0.4178     3.6799     0.4350 C.3     
  21 O21            0.9261     3.4377    -0.0148 O.3     
  22 Cl22          -1.0609    -6.0009     1.7579 Cl      
  23 H23           -0.9263    -0.5559     0.0005 H       
  24 H24            3.3063     1.9661     0.0022 H       
  25 H25            3.1851    -2.2498    -1.4715 H       
  26 H26            3.5874    -2.9116     0.1478 H       
  27 H27           -0.4619    -4.5489    -0.7482 H       
  28 H28            2.4326    -1.7638     2.7706 H       
  29 H29            1.6874    -3.2193     4.6143 H       
  30 H30            0.1488    -5.0860     4.1601 H       
  31 H31           -1.6100     2.4744    -0.9478 H       
  32 H32           -1.8956     2.1051     0.7855 H       
  33 H33           -0.8483     4.5389    -0.0795 H       
  34 H34           -0.4436     3.8227     1.5153 H       
@<TRIPOS>BOND
   1    1    2 ar
   2    1    6 ar
   3    1   19 1
   4    2    3 ar
   5    2   23 1
   6    3    4 ar
   7    3    8 1
   8    4    5 ar
   9    4    7 1
  10    5    6 ar
  11    5   24 1
  12    6   21 1
  13    7    9 1
  14    8    9 1
  15    8   11 1
  16    8   12 1
  17    9   25 1
  18    9   26 1
  19   10   11 ar
  20   10   13 1
  21   10   18 ar
  22   11   15 ar
  23   12   13 am
  24   12   14 2
  25   13   27 1
  26   15   16 ar
  27   15   28 1
  28   16   17 ar
  29   16   29 1
  30   17   18 ar
  31   17   30 1
  32   18   22 1
  33   19   20 1
  34   19   31 1
  35   19   32 1
  36   20   21 1
  37   20   33 1
  38   20   34 1

#	End of record

