#	Name: ASD01916236
#	Creating user name:	WinNT
#	Creation time:	15. 06. 2019 20:07

#	Modifying user name:	WinNT
#	Modification time:	15. 06. 2019 20:07

#	Program:	/corina/corina34_cracker 3.40 0067  02.08.2006

@<TRIPOS>MOLECULE
ASD01916236
  38   39    0    0    0
SMALL
NO_CHARGES


@<TRIPOS>ATOM
   1 C1             0.4260     1.2276    -0.4145 C.ar    
   2 C2             0.6386    -0.1377    -0.3270 C.ar    
   3 C3             1.7853    -0.6251     0.2717 C.ar    
   4 C4             2.7314     0.2608     0.7894 C.ar    
   5 C5             2.5147     1.6364     0.6999 C.ar    
   6 C6             1.3628     2.1149     0.0982 C.ar    
   7 O7             1.1491     3.4540     0.0096 O.3     
   8 C8             1.6343     4.1068    -1.0791 C.ar    
   9 C9             1.5444     5.4915    -1.1796 C.ar    
  10 N10            2.0290     6.0898    -2.2553 N.ar    
  11 C11            2.5903     5.3922    -3.2223 C.ar    
  12 N12            2.6939     4.0797    -3.1643 N.ar    
  13 C13            2.2388     3.4083    -2.1193 C.ar    
  14 C14            3.9586    -0.2563     1.4307 C.2     
  15 N15            4.1654    -1.5854     1.5164 N.am    
  16 O16            4.7813     0.5171     1.8809 O.2     
  17 C17            5.3180    -2.0711     2.1188 C.2     
  18 S18            6.5958    -1.0796     2.8149 S.3     
  19 C19            7.4861    -2.5334     3.2603 C.2     
  20 C20            6.7722    -3.6045     2.8618 C.2     
  21 N21            5.6167    -3.3243     2.2604 N.2     
  22 F22           -0.2772    -0.9956    -0.8275 F       
  23 C23            7.2207    -4.9477     3.0742 C.1     
  24 C24            7.5885    -6.0490     3.2484 C.1     
  25 C25            8.0495    -7.4297     3.4668 C.3     
  26 H26           -0.4692     1.6038    -0.8872 H       
  27 H27            1.9488    -1.6905     0.3392 H       
  28 H28            3.2435     2.3263     1.0991 H       
  29 H29            1.0854     6.0694    -0.3911 H       
  30 H30            2.9762     5.9111    -4.0874 H       
  31 H31            2.3274     2.3327    -2.0782 H       
  32 H32            3.5089    -2.2025     1.1572 H       
  33 H33            8.4403    -2.5612     3.7653 H       
  34 H34            7.3142    -8.1263     3.0640 H       
  35 H35            9.0046    -7.5779     2.9628 H       
  36 H36            8.1712    -7.6075     4.5353 H       
  37 H37           14.0046    11.0898     9.5353 H       
  38 H38           14.0046    11.8498     9.5353 H       
@<TRIPOS>BOND
   1    1    2 ar
   2    1    6 ar
   3    1   26 1
   4    2    3 ar
   5    2   22 1
   6    3    4 ar
   7    3   27 1
   8    4    5 ar
   9    4   14 1
  10    5    6 ar
  11    5   28 1
  12    6    7 1
  13    7    8 1
  14    8    9 ar
  15    8   13 ar
  16    9   10 ar
  17    9   29 1
  18   10   11 ar
  19   11   12 ar
  20   11   30 1
  21   12   13 ar
  22   13   31 1
  23   14   15 am
  24   14   16 2
  25   15   17 1
  26   15   32 1
  27   17   18 1
  28   17   21 2
  29   18   19 1
  30   19   20 2
  31   19   33 1
  32   20   21 1
  33   20   23 1
  34   23   24 3
  35   24   25 1
  36   25   34 1
  37   25   35 1
  38   25   36 1
  39   37   38 1

#	End of record

