#	Name: ASD01918369
#	Creating user name:	WinNT
#	Creation time:	15. 06. 2019 20:11

#	Modifying user name:	WinNT
#	Modification time:	15. 06. 2019 20:11

#	Program:	/corina/corina34_cracker 3.40 0067  02.08.2006

@<TRIPOS>MOLECULE
ASD01918369
  44   46    0    0    0
SMALL
NO_CHARGES


@<TRIPOS>ATOM
   1 H1             0.0021    -0.0041     0.0020 H       
   2 C2            -0.0127     1.0858     0.0080 C.3     
   3 C3            -0.7803     1.6661    -1.2021 C.3     
   4 C4            -1.4332     2.9590    -0.6700 C.3     
   5 C5            -0.9988     3.0384     0.8117 C.3     
   6 H6            -1.7640     3.4927     1.4412 H       
   7 C7             0.3308     3.8070     0.8718 C.3     
   8 C8             1.2809     3.2369    -0.1854 C.3     
   9 O9             0.7630     3.5125    -1.4884 O.3     
  10 C10            1.4033     1.6834    -0.0023 C.3     
  11 C11            2.6054     3.8631    -0.0423 C.1     
  12 C12            3.6617     4.3625     0.0718 C.1     
  13 C13            4.9502     4.9718     0.2110 C.ar    
  14 C14            5.1708     5.9231     1.2077 C.ar    
  15 C15            6.4138     6.5084     1.3391 C.ar    
  16 C16            7.4424     6.1552     0.4859 C.ar    
  17 C17            7.2321     5.2094    -0.5087 C.ar    
  18 O18            8.2470     4.8659    -1.3448 O.3     
  19 C19            9.5027     5.5174    -1.1429 C.3     
  20 F20            9.3413     6.8986    -1.2954 F       
  21 F21            9.9688     5.2419     0.1471 F       
  22 C22            5.9905     4.6120    -0.6455 C.ar    
  23 N23           -0.7119     1.6304     1.1970 N.am    
  24 C24           -1.0222     0.9959     2.3449 C.2     
  25 O25           -0.7215    -0.1719     2.4940 O.2     
  26 O26           -1.6655     1.6560     3.3263 O.3     
  27 C27           -1.9676     0.9097     4.5346 C.3     
  28 H28           -0.0907     1.8956    -2.0145 H       
  29 H29           -1.5446     0.9654    -1.5383 H       
  30 H30           -1.0649     3.8247    -1.2205 H       
  31 H31           -2.5188     2.8945    -0.7444 H       
  32 H32            0.1515     4.8631     0.6700 H       
  33 H33            0.7742     3.6927     1.8609 H       
  34 H34            1.3146     3.1795    -2.2094 H       
  35 H35            1.8996     1.4627     0.9427 H       
  36 H36            1.9746     1.2546    -0.8256 H       
  37 H37            4.3691     6.2016     1.8757 H       
  38 H38            6.5832     7.2449     2.1107 H       
  39 H39            8.4130     6.6167     0.5931 H       
  40 H40           10.2231     5.1527    -1.8751 H       
  41 H41            5.8270     3.8728    -1.4156 H       
  42 H42           -1.0403     0.5513     4.9816 H       
  43 H43           -2.4853     1.5576     5.2419 H       
  44 H44           -2.6039     0.0599     4.2873 H       
@<TRIPOS>BOND
   1    1    2 1
   2    2   10 1
   3    2   23 1
   4    2    3 1
   5    3    4 1
   6    3   28 1
   7    3   29 1
   8    4    5 1
   9    4   30 1
  10    4   31 1
  11    5    6 1
  12    5    7 1
  13    5   23 1
  14    7    8 1
  15    7   32 1
  16    7   33 1
  17    8    9 1
  18    8   10 1
  19    8   11 1
  20    9   34 1
  21   10   35 1
  22   10   36 1
  23   11   12 3
  24   12   13 1
  25   13   22 ar
  26   13   14 ar
  27   14   15 ar
  28   14   37 1
  29   15   16 ar
  30   15   38 1
  31   16   17 ar
  32   16   39 1
  33   17   18 1
  34   17   22 ar
  35   18   19 1
  36   19   20 1
  37   19   21 1
  38   19   40 1
  39   22   41 1
  40   23   24 am
  41   24   25 2
  42   24   26 1
  43   26   27 1
  44   27   42 1
  45   27   43 1
  46   27   44 1

#	End of record

