#	Name: ASD05060044
#	Creating user name:	WinNT
#	Creation time:	15. 06. 2019 20:56

#	Modifying user name:	WinNT
#	Modification time:	15. 06. 2019 20:56

#	Program:	/corina/corina34_cracker 3.40 0067  02.08.2006

@<TRIPOS>MOLECULE
ASD05060044
  37   39    0    0    0
SMALL
NO_CHARGES


@<TRIPOS>ATOM
   1 C1            -0.0439     1.2061    -0.0575 C.2     
   2 N2             0.0443    -0.0943     0.0050 N.2     
   3 C3             1.3380    -0.4547     0.0418 C.2     
   4 C4             2.0909     0.7113    -0.0015 C.2     
   5 N5             1.1904     1.7444    -0.0639 N.pl3   
   6 C6             1.8622    -1.8348     0.1155 C.2     
   7 O7             3.0618    -2.0286     0.1433 O.2     
   8 N8             1.0100    -2.8783     0.1517 N.am    
   9 C9             1.5015    -4.1809     0.1057 C.ar    
  10 C10            0.6284    -5.2525     0.2585 C.ar    
  11 C11            1.1298    -6.5410     0.2102 C.ar    
  12 C12            2.4928    -6.7144     0.0100 C.ar    
  13 C13            3.3015    -5.6046    -0.1340 C.ar    
  14 N14            2.7944    -4.3875    -0.0885 N.ar    
  15 C15            3.5597     0.8175     0.0160 C.2     
  16 O16            4.1651     1.0466    -1.0135 O.2     
  17 N17            4.2329     0.6607     1.1730 N.am    
  18 C18            5.6886     0.8666     1.2363 C.3     
  19 C19            5.9925     1.8159     2.4010 C.3     
  20 O20            5.3693     1.3192     3.5879 O.3     
  21 C21            3.9428     1.2571     3.5179 C.3     
  22 C22            3.5331     0.2847     2.4117 C.3     
  23 H23           -0.9666     1.7656    -0.1020 H       
  24 H24            1.4038     2.6897    -0.1051 H       
  25 H25            0.0544    -2.7223     0.2099 H       
  26 H26           -0.4266    -5.0812     0.4131 H       
  27 H27            0.4759    -7.3928     0.3261 H       
  28 H28            2.9161    -7.7071    -0.0324 H       
  29 H29            4.3623    -5.7346    -0.2896 H       
  30 H30            6.1876    -0.0883     1.4013 H       
  31 H31            6.0379     1.3075     0.3026 H       
  32 H32            7.0704     1.8731     2.5523 H       
  33 H33            5.6029     2.8081     2.1731 H       
  34 H34            3.5461     0.9122     4.4728 H       
  35 H35            3.5457     2.2472     3.2941 H       
  36 H36            2.4557     0.3403     2.2560 H       
  37 H37            3.8114    -0.7299     2.6970 H       
@<TRIPOS>BOND
   1    1    2 2
   2    1    5 1
   3    1   23 1
   4    2    3 1
   5    3    4 2
   6    3    6 1
   7    4    5 1
   8    4   15 1
   9    5   24 1
  10    6    7 2
  11    6    8 am
  12    8    9 1
  13    8   25 1
  14    9   10 ar
  15    9   14 ar
  16   10   11 ar
  17   10   26 1
  18   11   12 ar
  19   11   27 1
  20   12   13 ar
  21   12   28 1
  22   13   14 ar
  23   13   29 1
  24   15   16 2
  25   15   17 am
  26   17   18 1
  27   17   22 1
  28   18   19 1
  29   18   30 1
  30   18   31 1
  31   19   20 1
  32   19   32 1
  33   19   33 1
  34   20   21 1
  35   21   22 1
  36   21   34 1
  37   21   35 1
  38   22   36 1
  39   22   37 1

#	End of record

