#	Name: ASD03240611
#	Creating user name:	WinNT
#	Creation time:	15. 06. 2019 20:35

#	Modifying user name:	WinNT
#	Modification time:	15. 06. 2019 20:35

#	Program:	/corina/corina34_cracker 3.40 0067  02.08.2006

@<TRIPOS>MOLECULE
ASD03240611
  68   74    0    0    0
SMALL
NO_CHARGES


@<TRIPOS>ATOM
   1 C1            -0.3342     1.8954     0.4652 C.ar    
   2 C2            -0.3952     0.5245     0.6087 C.ar    
   3 N3             0.7045    -0.1992     0.6967 N.ar    
   4 C4             1.9106     0.3505     0.6529 C.ar    
   5 C5             2.0469     1.7284     0.4954 C.ar    
   6 C6             0.9066     2.5162     0.4062 C.ar    
   7 N7             3.0318    -0.4636     0.7871 N.pl3   
   8 C8             3.8972    -0.3082     1.8665 C.ar    
   9 C9             4.5977     0.8888     2.0497 C.ar    
  10 C10            4.4476     1.9943     1.0781 C.2     
  11 N11            3.3085     2.3338     0.4072 N.pl3   
  12 C12            4.0669    -1.3468     2.7723 C.ar    
  13 C13            4.9147    -1.1914     3.8523 C.ar    
  14 C14            5.5991    -0.0031     4.0413 C.ar    
  15 C15            5.4459     1.0370     3.1468 C.ar    
  16 N16            5.4140     2.8165     0.7220 N.2     
  17 C17            4.9505     3.6974    -0.1780 C.2     
  18 C18            3.6144     3.4125    -0.3979 C.2     
  19 C19            2.6983     4.1211    -1.3124 C.ar    
  20 C20            2.6779     5.5177    -1.3424 C.ar    
  21 C21            1.8513     3.3985    -2.1563 C.ar    
  22 C22            0.9976     4.0674    -3.0083 C.ar    
  23 C23            0.9791     5.4510    -3.0289 C.ar    
  24 C24            1.8190     6.1732    -2.1996 C.ar    
  25 C25            5.7298     4.7810    -0.8209 C.ar    
  26 C26            0.0438     6.1746    -3.9631 C.3     
  27 C27            6.7230     5.4466    -0.1053 C.ar    
  28 C28            7.4489     6.4597    -0.7137 C.ar    
  29 C29            7.1844     6.8078    -2.0330 C.ar    
  30 C30            6.1986     6.1473    -2.7421 C.ar    
  31 C31            5.4753     5.1341    -2.1466 C.ar    
  32 N32           -1.0549     5.3249    -4.4415 N.3     
  33 C33           -0.4205     7.5415    -3.4332 C.3     
  34 C34           -0.2660     8.0634    -4.8714 C.3     
  35 C35            0.7645     6.9420    -5.0840 C.3     
  36 N36            8.4454     7.1303    -0.0004 N.am    
  37 S37            9.8986     6.3902     0.2870 S.o2    
  38 C38           10.6079     6.1297    -1.3622 C.3     
  39 O39           10.6495     7.3593     1.0053 O.2     
  40 O40            9.5477     5.1478     0.8807 O.2     
  41 H41           -1.2407     2.4783     0.3951 H       
  42 H42           -1.3578     0.0365     0.6499 H       
  43 H43            0.9832     3.5875     0.2932 H       
  44 H44            3.2118    -1.1463     0.1219 H       
  45 H45            3.5355    -2.2767     2.6328 H       
  46 H46            5.0440    -2.0023     4.5538 H       
  47 H47            6.2555     0.1105     4.8914 H       
  48 H48            5.9813     1.9629     3.2961 H       
  49 H49            3.3329     6.0826    -0.6957 H       
  50 H50            1.8652     2.3187    -2.1417 H       
  51 H51            0.3422     3.5101    -3.6613 H       
  52 H52            1.7990     7.2528    -2.2206 H       
  53 H53            6.9266     5.1747     0.9199 H       
  54 H54            7.7506     7.5969    -2.5055 H       
  55 H55            5.9967     6.4223    -3.7668 H       
  56 H56            4.7061     4.6202    -2.7040 H       
  57 H57           -0.7047     4.4501    -4.8023 H       
  58 H58           -1.7352     5.1690    -3.7128 H       
  59 H59           -1.4502     7.5445    -3.0758 H       
  60 H60            0.2750     7.9952    -2.7270 H       
  61 H61           -1.1658     7.9499    -5.4761 H       
  62 H62            0.1603     9.0649    -4.9291 H       
  63 H63            1.7839     7.2318    -4.8291 H       
  64 H64            0.6914     6.4610    -6.0593 H       
  65 H65            8.2861     8.0296     0.3265 H       
  66 H66           10.6494     7.0802    -1.8941 H       
  67 H67           11.6147     5.7237    -1.2647 H       
  68 H68            9.9858     5.4288    -1.9187 H       
@<TRIPOS>BOND
   1    1    2 ar
   2    1    6 ar
   3    1   41 1
   4    2    3 ar
   5    2   42 1
   6    3    4 ar
   7    4    5 ar
   8    4    7 1
   9    5    6 ar
  10    5   11 1
  11    6   43 1
  12    7    8 1
  13    7   44 1
  14    8    9 ar
  15    8   12 ar
  16    9   10 1
  17    9   15 ar
  18   10   11 1
  19   10   16 2
  20   11   18 1
  21   12   13 ar
  22   12   45 1
  23   13   14 ar
  24   13   46 1
  25   14   15 ar
  26   14   47 1
  27   15   48 1
  28   16   17 1
  29   17   18 2
  30   17   25 1
  31   18   19 1
  32   19   20 ar
  33   19   21 ar
  34   20   24 ar
  35   20   49 1
  36   21   22 ar
  37   21   50 1
  38   22   23 ar
  39   22   51 1
  40   23   24 ar
  41   23   26 1
  42   24   52 1
  43   25   27 ar
  44   25   31 ar
  45   26   33 1
  46   26   32 1
  47   26   35 1
  48   27   28 ar
  49   27   53 1
  50   28   29 ar
  51   28   36 1
  52   29   30 ar
  53   29   54 1
  54   30   31 ar
  55   30   55 1
  56   31   56 1
  57   32   57 1
  58   32   58 1
  59   33   34 1
  60   33   59 1
  61   33   60 1
  62   34   35 1
  63   34   61 1
  64   34   62 1
  65   35   63 1
  66   35   64 1
  67   36   37 am
  68   36   65 1
  69   37   38 1
  70   37   39 2
  71   37   40 2
  72   38   66 1
  73   38   67 1
  74   38   68 1

#	End of record

