#	Name: ASD03331045
#	Creating user name:	WinNT
#	Creation time:	15. 06. 2019 20:38

#	Modifying user name:	WinNT
#	Modification time:	15. 06. 2019 20:38

#	Program:	/corina/corina34_cracker 3.40 0067  02.08.2006

@<TRIPOS>MOLECULE
ASD03331045
  71   74    0    0    0
SMALL
NO_CHARGES


@<TRIPOS>ATOM
   1 N1            -0.8706     1.7510    -0.3936 N.pl3   
   2 C2            -0.7032     0.4337    -0.1018 C.2     
   3 C3             0.6000    -0.2244     0.2693 C.3     
   4 N4             1.2771     0.5891     1.2912 N.3     
   5 C5             2.1342     1.6053     0.6778 C.3     
   6 C6             1.5329     2.1087    -0.6313 C.3     
   7 C7             0.1802     2.7722    -0.3592 C.3     
   8 C8            -2.1856     1.9362    -0.7071 C.2     
   9 N9            -2.8086     0.7864    -0.5964 N.2     
  10 C10           -1.9221    -0.1616    -0.2214 C.2     
  11 C11           -2.2206    -1.5851     0.0154 C.2     
  12 O12           -1.3323    -2.3450     0.3511 O.2     
  13 N13           -3.4779    -2.0448    -0.1400 N.am    
  14 C14            2.0431    -0.2575     2.2156 C.3     
  15 C15           -4.9977    -3.8545    -0.6917 C.2     
  16 C16           -3.7747    -3.4600     0.0954 C.3     
  17 C17           -4.0331    -3.6858     1.5864 C.3     
  18 C18           -4.4432    -5.1414     1.8183 C.3     
  19 O19           -5.8455    -3.0266    -0.9503 O.2     
  20 C20           -2.7583    -3.3831     2.3765 C.3     
  21 C21           -5.1561    -2.7586     2.0555 C.3     
  22 N22           -5.1495    -5.1272    -1.1083 N.am    
  23 C23           -6.3836    -5.5520    -1.7831 C.3     
  24 C24           -6.0152    -6.2090    -3.1170 C.3     
  25 C25           -5.0154    -7.3399    -2.8652 C.3     
  26 C26           -3.7410    -6.7669    -2.2407 C.3     
  27 C27           -4.0814    -6.1149    -0.9019 C.3     
  28 O28           -7.1925    -6.7405    -3.7282 O.3     
  29 C29           -2.8056     3.2188    -1.1048 C.ar    
  30 C30           -3.6535     3.2742    -2.2143 C.ar    
  31 C31           -4.2297     4.4762    -2.5799 C.ar    
  32 C32           -3.9684     5.6215    -1.8502 C.ar    
  33 C33           -3.1288     5.5727    -0.7504 C.ar    
  34 C34           -2.5511     4.3772    -0.3708 C.ar    
  35 F35           -3.9090     2.1559    -2.9280 F       
  36 Cl36          -2.8067     7.0168     0.1578 Cl      
  37 H37            0.4050    -1.2204     0.6668 H       
  38 H38            1.2339    -0.3012    -0.6141 H       
  39 H39            2.2456     2.4430     1.3662 H       
  40 H40            3.1152     1.1737     0.4787 H       
  41 H41            2.2079     2.8346    -1.0846 H       
  42 H42            1.3943     1.2694    -1.3128 H       
  43 H43           -0.0172     3.5241    -1.1232 H       
  44 H44            0.1971     3.2447     0.6230 H       
  45 H45           -4.1863    -1.4387    -0.4077 H       
  46 H46            2.7477    -0.8675     1.6503 H       
  47 H47            2.5896     0.3726     2.9173 H       
  48 H48            1.3605    -0.9058     2.7649 H       
  49 H49           -2.9268    -4.0668    -0.2224 H       
  50 H50           -3.6413    -5.8018     1.4883 H       
  51 H51           -4.6317    -5.3011     2.8799 H       
  52 H52           -5.3488    -5.3584     1.2518 H       
  53 H53           -2.4661    -2.3460     2.2113 H       
  54 H54           -2.9424    -3.5439     3.4387 H       
  55 H55           -1.9582    -4.0436     2.0423 H       
  56 H56           -6.0643    -2.9743     1.4926 H       
  57 H57           -5.3402    -2.9194     3.1178 H       
  58 H58           -4.8639    -1.7216     1.8903 H       
  59 H59           -6.9142    -6.2691    -1.1568 H       
  60 H60           -7.0173    -4.6842    -1.9659 H       
  61 H61           -5.5659    -5.4664    -3.7765 H       
  62 H62           -5.4561    -8.0697    -2.1860 H       
  63 H63           -4.7703    -7.8251    -3.8100 H       
  64 H64           -3.0205    -7.5694    -2.0832 H       
  65 H65           -3.3132    -6.0191    -2.9084 H       
  66 H66           -3.1967    -5.6183    -0.5034 H       
  67 H67           -4.4205    -6.8788    -0.2022 H       
  68 H68           -7.0335    -7.1723    -4.5786 H       
  69 H69           -4.8850     4.5211    -3.4372 H       
  70 H70           -4.4210     6.5584    -2.1398 H       
  71 H71           -1.9003     4.3401     0.4903 H       
@<TRIPOS>BOND
   1    1    2 1
   2    1    7 1
   3    1    8 1
   4    2    3 1
   5    2   10 2
   6    3    4 1
   7    3   37 1
   8    3   38 1
   9    4    5 1
  10    4   14 1
  11    5    6 1
  12    5   39 1
  13    5   40 1
  14    6    7 1
  15    6   41 1
  16    6   42 1
  17    7   43 1
  18    7   44 1
  19    8    9 2
  20    8   29 1
  21    9   10 1
  22   10   11 1
  23   11   12 2
  24   11   13 am
  25   13   16 1
  26   13   45 1
  27   14   46 1
  28   14   47 1
  29   14   48 1
  30   15   19 2
  31   15   22 am
  32   15   16 1
  33   16   17 1
  34   16   49 1
  35   17   18 1
  36   17   20 1
  37   17   21 1
  38   18   50 1
  39   18   51 1
  40   18   52 1
  41   20   53 1
  42   20   54 1
  43   20   55 1
  44   21   56 1
  45   21   57 1
  46   21   58 1
  47   22   23 1
  48   22   27 1
  49   23   24 1
  50   23   59 1
  51   23   60 1
  52   24   25 1
  53   24   28 1
  54   24   61 1
  55   25   26 1
  56   25   62 1
  57   25   63 1
  58   26   27 1
  59   26   64 1
  60   26   65 1
  61   27   66 1
  62   27   67 1
  63   28   68 1
  64   29   30 ar
  65   29   34 ar
  66   30   31 ar
  67   30   35 1
  68   31   32 ar
  69   31   69 1
  70   32   33 ar
  71   32   70 1
  72   33   34 ar
  73   33   36 1
  74   34   71 1

#	End of record

