#	Name: ASD01150750
#	Creating user name:	WinNT
#	Creation time:	15. 06. 2019 19:04

#	Modifying user name:	WinNT
#	Modification time:	15. 06. 2019 19:04

#	Program:	/corina/corina34_cracker 3.40 0067  02.08.2006

@<TRIPOS>MOLECULE
ASD01150750
  43   45    0    0    0
SMALL
NO_CHARGES


@<TRIPOS>ATOM
   1 C1            -0.0036     1.4279     0.0462 C.2     
   2 C2            -0.5049     1.0159    -1.3139 C.3     
   3 N3             3.5628     2.3149     0.4708 N.ar    
   4 C4             2.4623     1.6182     0.3621 C.ar    
   5 C5             1.2136     2.2360     0.1649 C.ar    
   6 C6             1.1479     3.6397     0.0826 C.ar    
   7 C7             2.3603     4.3640     0.2046 C.ar    
   8 C8             2.3779     5.7628     0.1330 C.ar    
   9 C9             3.5754     6.4335     0.2554 C.ar    
  10 C10            4.7659     5.7290     0.4496 C.ar    
  11 C11            4.7719     4.3696     0.5218 C.ar    
  12 C12            3.5696     3.6537     0.4015 C.ar    
  13 O13            3.5984     7.7906     0.1863 O.3     
  14 C14            4.8716     8.4255     0.3207 C.3     
  15 F15            5.7232     7.9828    -0.6971 F       
  16 F16            4.7134     9.8123     0.2260 F       
  17 F17            5.4245     8.1030     1.5646 F       
  18 C18            2.5327     0.1154     0.4496 C.3     
  19 C19           -0.1385     4.3332    -0.1240 C.ar    
  20 C20           -1.1346     4.2689     0.8550 C.ar    
  21 C21           -2.3347     4.9183     0.6575 C.ar    
  22 C22           -2.5542     5.6362    -0.5147 C.ar    
  23 C23           -1.5664     5.7016    -1.4886 C.ar    
  24 C24           -0.3619     5.0605    -1.2961 C.ar    
  25 O25           -3.7378     6.2741    -0.7066 O.3     
  26 C26           -3.8965     6.9923    -1.9318 C.3     
  27 F27           -3.2985     4.8574     1.6023 F       
  28 F28           -1.6236     0.1886    -1.1678 F       
  29 F29           -0.8596     2.1549    -2.0449 F       
  30 F30            0.5030     0.3219    -1.9919 F       
  31 O31           -0.6103     1.0949     1.0428 O.2     
  32 H32            1.4599     6.3114    -0.0174 H       
  33 H33            5.6954     6.2708     0.5436 H       
  34 H34            5.7018     3.8412     0.6716 H       
  35 H35            2.4934    -0.1899     1.4953 H       
  36 H36            1.6901    -0.3197    -0.0878 H       
  37 H37            3.4655    -0.2312     0.0048 H       
  38 H38           -0.9644     3.7113     1.7642 H       
  39 H39           -1.7408     6.2597    -2.3967 H       
  40 H40            0.4069     5.1160    -2.0525 H       
  41 H41           -3.1321     7.7663    -2.0008 H       
  42 H42           -3.7946     6.3050    -2.7717 H       
  43 H43           -4.8838     7.4534    -1.9573 H       
@<TRIPOS>BOND
   1    1    2 1
   2    1    5 1
   3    1   31 2
   4    2   28 1
   5    2   29 1
   6    2   30 1
   7    3    4 ar
   8    3   12 ar
   9    4    5 ar
  10    4   18 1
  11    5    6 ar
  12    6    7 ar
  13    6   19 1
  14    7    8 ar
  15    7   12 ar
  16    8    9 ar
  17    8   32 1
  18    9   10 ar
  19    9   13 1
  20   10   11 ar
  21   10   33 1
  22   11   12 ar
  23   11   34 1
  24   13   14 1
  25   14   15 1
  26   14   16 1
  27   14   17 1
  28   18   35 1
  29   18   36 1
  30   18   37 1
  31   19   20 ar
  32   19   24 ar
  33   20   21 ar
  34   20   38 1
  35   21   22 ar
  36   21   27 1
  37   22   23 ar
  38   22   25 1
  39   23   24 ar
  40   23   39 1
  41   24   40 1
  42   25   26 1
  43   26   41 1
  44   26   42 1
  45   26   43 1

#	End of record

