#	Name: ASD06660006
#	Creating user name:	WinNT
#	Creation time:	15. 06. 2019 21:07

#	Modifying user name:	WinNT
#	Modification time:	15. 06. 2019 21:07

#	Program:	/corina/corina34_cracker 3.40 0067  02.08.2006

@<TRIPOS>MOLECULE
ASD06660006
  67   70    0    0    0
SMALL
NO_CHARGES


@<TRIPOS>ATOM
   1 C1            -0.4456     1.5212     1.0361 C.2     
   2 C2            -0.2949     0.0767     0.6342 C.3     
   3 C3            -1.3055    -0.2547    -0.4657 C.3     
   4 O4             0.4859     2.2816     0.9175 O.2     
   5 O5            -1.6162     1.9645     1.5207 O.3     
   6 C6            -1.2547    -1.7306    -0.7664 C.ar    
   7 C7            -2.0411    -2.6086    -0.0421 C.ar    
   8 C8            -1.9988    -3.9610    -0.3124 C.ar    
   9 C9            -1.1612    -4.4423    -1.3187 C.ar    
  10 C10           -0.3710    -3.5518    -2.0458 C.ar    
  11 C11           -0.4262    -2.2011    -1.7694 C.ar    
  12 O12           -1.8484    -6.8048    -0.9480 O.3     
  13 C13           -1.1106    -5.8917    -1.6134 C.2     
  14 N14           -0.3538    -6.4005    -2.5347 N.2     
  15 C15           -0.5641    -7.8612    -2.5578 C.3     
  16 C16           -1.8686    -8.0117    -1.7377 C.3     
  17 C17           -0.7583    -8.3627    -3.9902 C.3     
  18 N18            0.3947    -7.9717    -4.8050 N.pl3   
  19 C19            0.4447    -8.3182    -6.1502 C.ar    
  20 C20           -0.6037    -9.0366    -6.7165 C.ar    
  21 C21           -0.5409    -9.3748    -8.0560 C.ar    
  22 C22            0.5725    -8.9818    -8.7874 C.ar    
  23 C23            1.5762    -8.2708    -8.1612 C.ar    
  24 N24            1.4870    -7.9572    -6.8824 N.ar    
  25 C25            2.0866    -0.2845     1.0015 C.2     
  26 C26            3.4700    -0.4237     0.4968 C.ar    
  27 C27            4.0417    -1.6912     0.3674 C.ar    
  28 C28            5.3296    -1.8210    -0.1025 C.ar    
  29 C29            6.0642    -0.6847    -0.4497 C.ar    
  30 C30            5.4922     0.5828    -0.3202 C.ar    
  31 C31            4.2019     0.7117     0.1445 C.ar    
  32 O32            1.8729    -0.2896     2.1980 O.2     
  33 N33            1.0631    -0.1522     0.1347 N.am    
  34 C34            3.5823     2.0790     0.2780 C.3     
  35 C35            3.2494    -2.9170     0.7424 C.3     
  36 C36            2.4163    -3.3726    -0.4573 C.3     
  37 C37            7.4036    -0.8194    -0.9379 C.1     
  38 N38            8.4662    -0.9262    -1.3252 N.1     
  39 H39           -0.4764    -0.5619     1.4988 H       
  40 H40           -2.3076     0.0137    -0.1313 H       
  41 H41           -1.0600     0.3082    -1.3662 H       
  42 H42           -1.6647     2.8988     1.7650 H       
  43 H43           -2.6892    -2.2347     0.7367 H       
  44 H44           -2.6127    -4.6455     0.2542 H       
  45 H45            0.2797    -3.9184    -2.8258 H       
  46 H46            0.1821    -1.5102    -2.3344 H       
  47 H47            0.2624    -8.3812    -2.0734 H       
  48 H48           -1.8314    -8.8962    -1.1019 H       
  49 H49           -2.7408    -8.0375    -2.3909 H       
  50 H50           -0.8484    -9.4490    -3.9857 H       
  51 H51           -1.6643    -7.9247    -4.4088 H       
  52 H52            1.1232    -7.4709    -4.4058 H       
  53 H53           -1.4547    -9.3265    -6.1181 H       
  54 H54           -1.3395    -9.9322    -8.5228 H       
  55 H55            0.6523    -9.2304    -9.8353 H       
  56 H56            2.4437    -7.9632    -8.7262 H       
  57 H57            5.7718    -2.8013    -0.2022 H       
  58 H58            6.0601     1.4615    -0.5882 H       
  59 H59            1.2257    -0.2084    -0.8200 H       
  60 H60            3.7900     2.4766     1.2714 H       
  61 H61            4.0043     2.7442    -0.4752 H       
  62 H62            2.5043     2.0049     0.1344 H       
  63 H63            3.9316    -3.7151     1.0351 H       
  64 H64            2.5875    -2.6809     1.5757 H       
  65 H65            1.8067    -2.5418    -0.8129 H       
  66 H66            3.0802    -3.7039    -1.2558 H       
  67 H67            1.7685    -4.1965    -0.1580 H       
@<TRIPOS>BOND
   1    1    2 1
   2    1    4 2
   3    1    5 1
   4    2    3 1
   5    2   33 1
   6    2   39 1
   7    3    6 1
   8    3   40 1
   9    3   41 1
  10    5   42 1
  11    6    7 ar
  12    6   11 ar
  13    7    8 ar
  14    7   43 1
  15    8    9 ar
  16    8   44 1
  17    9   10 ar
  18    9   13 1
  19   10   11 ar
  20   10   45 1
  21   11   46 1
  22   12   13 1
  23   12   16 1
  24   13   14 2
  25   14   15 1
  26   15   16 1
  27   15   17 1
  28   15   47 1
  29   16   48 1
  30   16   49 1
  31   17   18 1
  32   17   50 1
  33   17   51 1
  34   18   19 1
  35   18   52 1
  36   19   20 ar
  37   19   24 ar
  38   20   21 ar
  39   20   53 1
  40   21   22 ar
  41   21   54 1
  42   22   23 ar
  43   22   55 1
  44   23   24 ar
  45   23   56 1
  46   25   26 1
  47   25   32 2
  48   25   33 am
  49   26   27 ar
  50   26   31 ar
  51   27   28 ar
  52   27   35 1
  53   28   29 ar
  54   28   57 1
  55   29   30 ar
  56   29   37 1
  57   30   31 ar
  58   30   58 1
  59   31   34 1
  60   33   59 1
  61   34   60 1
  62   34   61 1
  63   34   62 1
  64   35   36 1
  65   35   63 1
  66   35   64 1
  67   36   65 1
  68   36   66 1
  69   36   67 1
  70   37   38 3

#	End of record

