#	Name: ASD02508211
#	Creating user name:	WinNT
#	Creation time:	15. 06. 2019 20:24

#	Modifying user name:	WinNT
#	Modification time:	15. 06. 2019 20:24

#	Program:	/corina/corina34_cracker 3.40 0067  02.08.2006

@<TRIPOS>MOLECULE
ASD02508211
  54   58    0    0    0
SMALL
NO_CHARGES


@<TRIPOS>ATOM
   1 C1            -0.0168     1.3904     0.0097 C.ar    
   2 C2             0.0021    -0.0041     0.0020 C.ar    
   3 C3            -1.1922    -0.7077     0.0096 C.ar    
   4 C4            -2.3933    -0.0260     0.0248 C.ar    
   5 C5            -2.4110     1.3580     0.0319 C.ar    
   6 C6            -1.2261     2.0677     0.0299 C.ar    
   7 S7            -3.9102    -0.9224     0.0344 S.o2    
   8 N8            -4.3171    -1.1803     1.6188 N.am    
   9 C9            -5.1444    -0.2077     2.3464 C.3     
  10 N10            1.3140     1.8071    -0.0008 N.am    
  11 C11            2.0846     0.7014    -0.0141 C.2     
  12 O12            1.3018    -0.3890    -0.0125 O.3     
  13 O13           -4.8966    -0.0478    -0.4959 O.2     
  14 O14           -3.6251    -2.1995    -0.5196 O.2     
  15 C15            1.7879     3.1933     0.0021 C.3     
  16 O16            3.3005     0.6929    -0.0257 O.2     
  17 C17           -6.3663    -0.9357     2.9201 C.3     
  18 N18           -5.9070    -2.1416     3.6236 N.am    
  19 C19           -5.0797    -3.1142     2.8960 C.3     
  20 C20           -3.8625    -2.3889     2.3207 C.3     
  21 S21           -6.3140    -2.3994     5.2080 S.o2    
  22 C22           -7.8312    -3.2953     5.2176 C.ar    
  23 C23           -7.8063    -4.6563     5.2099 C.ar    
  24 C24           -9.0385    -2.6000     5.2388 C.ar    
  25 C25          -10.2282    -3.2615     5.2467 C.ar    
  26 C26          -10.2425    -4.6664     5.2334 C.ar    
  27 C27           -9.0143    -5.3737     5.2176 C.ar    
  28 O28           -5.3279    -3.2746     5.7382 O.2     
  29 O29           -6.5985    -1.1223     5.7622 O.2     
  30 C30          -11.4509    -5.3843     5.2406 C.ar    
  31 C31          -11.4258    -6.7448     5.2269 C.ar    
  32 C32          -10.2181    -7.4403     5.2059 C.ar    
  33 C33           -9.0286    -6.7791     5.2040 C.ar    
  34 H34           -1.1834    -1.7877     0.0034 H       
  35 H35           -3.3540     1.8844     0.0430 H       
  36 H36           -1.2417     3.1476     0.0359 H       
  37 H37           -4.5647     0.2303     3.1590 H       
  38 H38           -5.4728     0.5763     1.6640 H       
  39 H39            1.9152     3.5316     1.0305 H       
  40 H40            2.7426     3.2521    -0.5205 H       
  41 H41            1.0584     3.8277    -0.5014 H       
  42 H42           -6.8877    -0.2811     3.6185 H       
  43 H43           -7.0376    -1.2186     2.1093 H       
  44 H44           -4.7514    -3.8982     3.5784 H       
  45 H45           -5.6594    -3.5522     2.0835 H       
  46 H46           -3.3421    -3.0446     1.6226 H       
  47 H47           -3.1899    -2.1044     3.1299 H       
  48 H48           -6.8629    -5.1818     5.1977 H       
  49 H49           -9.0303    -1.5201     5.2493 H       
  50 H50          -11.1562    -2.7094     5.2635 H       
  51 H51          -12.3943    -4.8589     5.2572 H       
  52 H52          -12.3558    -7.2940     5.2328 H       
  53 H53          -10.2263    -8.5202     5.1957 H       
  54 H54           -8.1006    -7.3313     5.1872 H       
@<TRIPOS>BOND
   1    1    2 ar
   2    1   10 1
   3    1    6 ar
   4    2    3 ar
   5    2   12 1
   6    3    4 ar
   7    3   34 1
   8    4    5 ar
   9    4    7 1
  10    5    6 ar
  11    5   35 1
  12    6   36 1
  13    7    8 am
  14    7   13 2
  15    7   14 2
  16    8    9 1
  17    8   20 1
  18    9   17 1
  19    9   37 1
  20    9   38 1
  21   10   11 am
  22   10   15 1
  23   11   12 1
  24   11   16 2
  25   15   39 1
  26   15   40 1
  27   15   41 1
  28   17   18 1
  29   17   42 1
  30   17   43 1
  31   18   19 1
  32   18   21 am
  33   19   20 1
  34   19   44 1
  35   19   45 1
  36   20   46 1
  37   20   47 1
  38   21   22 1
  39   21   28 2
  40   21   29 2
  41   22   23 ar
  42   22   24 ar
  43   23   27 ar
  44   23   48 1
  45   24   25 ar
  46   24   49 1
  47   25   26 ar
  48   25   50 1
  49   26   27 ar
  50   26   30 ar
  51   27   33 ar
  52   30   31 ar
  53   30   51 1
  54   31   32 ar
  55   31   52 1
  56   32   33 ar
  57   32   53 1
  58   33   54 1

#	End of record

