#	Name: ASD03331101
#	Creating user name:	WinNT
#	Creation time:	15. 06. 2019 20:38

#	Modifying user name:	WinNT
#	Modification time:	15. 06. 2019 20:38

#	Program:	/corina/corina34_cracker 3.40 0067  02.08.2006

@<TRIPOS>MOLECULE
ASD03331101
  71   74    0    0    0
SMALL
NO_CHARGES


@<TRIPOS>ATOM
   1 N1            -0.3199     1.4401    -0.3048 N.pl3   
   2 C2            -0.2212     0.0866    -0.2169 C.2     
   3 C3             1.0625    -0.6950    -0.1146 C.3     
   4 N4             1.9225    -0.0780     0.9072 N.3     
   5 C5             2.7738     0.9619     0.3263 C.3     
   6 C6             2.0562     1.6825    -0.8115 C.3     
   7 C7             0.8037     2.3807    -0.2747 C.3     
   8 C8            -1.6451     1.7471    -0.4122 C.2     
   9 N9            -2.3377     0.6327    -0.3741 N.2     
  10 C10           -1.4881    -0.4110    -0.2512 C.2     
  11 C11           -1.8652    -1.8330    -0.1696 C.2     
  12 O12           -1.0044    -2.6852    -0.0606 O.2     
  13 N13           -3.1642    -2.1894    -0.2158 N.am    
  14 C14           -2.2072     3.1080    -0.5483 C.ar    
  15 C15           -3.1786     3.3718    -1.5178 C.ar    
  16 C16           -3.7008     4.6452    -1.6402 C.ar    
  17 C17           -3.2628     5.6591    -0.8047 C.ar    
  18 C18           -2.2980     5.4025     0.1595 C.ar    
  19 C19           -1.7739     4.1320     0.2946 C.ar    
  20 F20           -1.8746     6.3964     0.9708 F       
  21 F21           -3.7763     6.9026    -0.9288 F       
  22 F22           -3.6060     2.3838    -2.3341 F       
  23 C23            2.7286    -1.0925     1.5993 C.3     
  24 C24           -4.8775    -3.8068    -0.7969 C.2     
  25 C25           -3.5392    -3.6033    -0.1347 C.3     
  26 C26           -3.6276    -4.0241     1.3337 C.3     
  27 C27           -4.1429    -5.4619     1.4220 C.3     
  28 O28           -5.7333    -2.9518    -0.7102 O.2     
  29 C29           -2.2400    -3.9394     1.9729 C.3     
  30 C30           -4.5881    -3.0916     2.0745 C.3     
  31 N31           -5.1233    -4.9390    -1.4856 N.am    
  32 C32           -6.4117    -5.3136    -2.0867 C.3     
  33 C33           -6.2248    -6.6963    -2.7462 C.3     
  34 C34           -4.9990    -7.2776    -1.9932 C.3     
  35 C35           -4.1432    -6.0038    -1.7665 C.3     
  36 C36           -6.8120    -4.2827    -3.1440 C.3     
  37 O37           -5.8736    -4.3160    -4.2211 O.3     
  38 H38            0.8410    -1.7240     0.1685 H       
  39 H39            1.5740    -0.6830    -1.0771 H       
  40 H40            3.0348     1.6845     1.0995 H       
  41 H41            3.6857     0.5049    -0.0581 H       
  42 H42            2.7246     2.4237    -1.2497 H       
  43 H43            1.7689     0.9590    -1.5745 H       
  44 H44            0.5727     3.2445    -0.8979 H       
  45 H45            0.9792     2.7062     0.7507 H       
  46 H46           -3.8508    -1.5097    -0.3027 H       
  47 H47           -4.4515     4.8503    -2.3891 H       
  48 H48           -1.0264     3.9325     1.0482 H       
  49 H49            3.3079    -1.6568     0.8685 H       
  50 H50            3.4054    -0.6030     2.2996 H       
  51 H51            2.0707    -1.7703     2.1432 H       
  52 H52           -2.7873    -4.2082    -0.6414 H       
  53 H53           -3.4180    -6.1364     0.9662 H       
  54 H54           -4.2842    -5.7336     2.4681 H       
  55 H55           -5.0937    -5.5402     0.8947 H       
  56 H56           -1.8729    -2.9150     1.9099 H       
  57 H57           -2.3030    -4.2392     3.0189 H       
  58 H58           -1.5558    -4.6037     1.4451 H       
  59 H59           -5.5766    -3.1519     1.6192 H       
  60 H60           -4.6510    -3.3914     3.1206 H       
  61 H61           -4.2209    -2.0672     2.0116 H       
  62 H62           -7.1782    -5.3721    -1.3140 H       
  63 H63           -7.1048    -7.3202    -2.5900 H       
  64 H64           -6.0096    -6.5905    -3.8095 H       
  65 H65           -5.2988    -7.7248    -1.0454 H       
  66 H66           -4.4662    -7.9991    -2.6126 H       
  67 H67           -3.5697    -5.7649    -2.6621 H       
  68 H68           -3.4776    -6.1412    -0.9142 H       
  69 H69           -7.8072    -4.5173    -3.5217 H       
  70 H70           -6.8178    -3.2882    -2.6978 H       
  71 H71           -6.0656    -3.6866    -4.9297 H       
@<TRIPOS>BOND
   1    1    2 1
   2    1    7 1
   3    1    8 1
   4    2    3 1
   5    2   10 2
   6    3    4 1
   7    3   38 1
   8    3   39 1
   9    4    5 1
  10    4   23 1
  11    5    6 1
  12    5   40 1
  13    5   41 1
  14    6    7 1
  15    6   42 1
  16    6   43 1
  17    7   44 1
  18    7   45 1
  19    8    9 2
  20    8   14 1
  21    9   10 1
  22   10   11 1
  23   11   12 2
  24   11   13 am
  25   13   25 1
  26   13   46 1
  27   14   15 ar
  28   14   19 ar
  29   15   16 ar
  30   15   22 1
  31   16   17 ar
  32   16   47 1
  33   17   18 ar
  34   17   21 1
  35   18   19 ar
  36   18   20 1
  37   19   48 1
  38   23   49 1
  39   23   50 1
  40   23   51 1
  41   24   28 2
  42   24   31 am
  43   24   25 1
  44   25   26 1
  45   25   52 1
  46   26   27 1
  47   26   29 1
  48   26   30 1
  49   27   53 1
  50   27   54 1
  51   27   55 1
  52   29   56 1
  53   29   57 1
  54   29   58 1
  55   30   59 1
  56   30   60 1
  57   30   61 1
  58   31   32 1
  59   31   35 1
  60   32   33 1
  61   32   36 1
  62   32   62 1
  63   33   34 1
  64   33   63 1
  65   33   64 1
  66   34   35 1
  67   34   65 1
  68   34   66 1
  69   35   67 1
  70   35   68 1
  71   36   37 1
  72   36   69 1
  73   36   70 1
  74   37   71 1

#	End of record

