#	Name: ASD04590493
#	Creating user name:	WinNT
#	Creation time:	15. 06. 2019 20:50

#	Modifying user name:	WinNT
#	Modification time:	15. 06. 2019 20:50

#	Program:	/corina/corina34_cracker 3.40 0067  02.08.2006

@<TRIPOS>MOLECULE
ASD04590493
  64   68    0    0    0
SMALL
NO_CHARGES


@<TRIPOS>ATOM
   1 C1            -0.0155     1.3846     0.0018 C.ar    
   2 C2             0.0031    -0.0026    -0.0110 C.ar    
   3 C3             2.4031     0.0232    -0.0244 C.ar    
   4 C4             2.3782     1.4292    -0.0114 C.ar    
   5 C5             1.1639     2.0998     0.0016 C.ar    
   6 N6             3.7050    -0.3544    -0.0353 N.2     
   7 C7             4.4722     0.7088    -0.0299 C.2     
   8 N8             3.6984     1.8382    -0.0152 N.pl3   
   9 C9             5.9495     0.6909    -0.0389 C.2     
  10 C10            6.7668    -0.4630    -0.0551 C.2     
  11 C11            8.0592    -0.0540    -0.0588 C.2     
  12 N12            8.0661     1.3049    -0.0455 N.pl3   
  13 N13            6.7376     1.7481    -0.0390 N.2     
  14 N14            6.3198    -1.7940    -0.0655 N.am    
  15 C15            7.2116    -2.8043    -0.0807 C.2     
  16 O16            8.4002    -2.5651    -0.1811 O.2     
  17 C17            1.1978    -0.6857    -0.0241 C.ar    
  18 C18            6.7477    -4.1968     0.0240 C.2     
  19 N19            7.5127    -5.3248    -0.0669 N.pl3   
  20 C20           -1.2953    -0.7676    -0.0101 C.3     
  21 N21           -1.7257    -1.0035    -1.3947 N.3     
  22 C22           -2.8543    -1.9444    -1.4426 C.3     
  23 C23           -0.6084    -1.4878    -2.2184 C.3     
  24 C24           -1.0847    -1.6630    -3.6628 C.3     
  25 O25           -2.2015    -2.5561    -3.6861 O.3     
  26 C26           -3.3081    -2.1150    -2.8948 C.3     
  27 N27            6.7689    -6.3627     0.0725 N.2     
  28 C28            5.5192    -6.0209     0.2567 C.2     
  29 C29            5.4497    -4.6260     0.2403 C.2     
  30 C30            8.9605    -5.3475    -0.2898 C.3     
  31 C31            4.3616    -6.9647     0.4571 C.3     
  32 C32            3.5260    -7.0260    -0.8231 C.3     
  33 C33            4.8931    -8.3610     0.7866 C.3     
  34 C34            3.4902    -6.4652     1.6113 C.3     
  35 H35           -0.9600     1.9082     0.0074 H       
  36 H36            1.1420     3.1795     0.0113 H       
  37 H37            4.0172     2.7543    -0.0091 H       
  38 H38            8.9288    -0.6944    -0.0699 H       
  39 H39            8.8545     1.8699    -0.0446 H       
  40 H40            5.3690    -1.9863    -0.0617 H       
  41 H41            1.2044    -1.7657    -0.0336 H       
  42 H42           -1.1536    -1.7234     0.4942 H       
  43 H43           -2.0570    -0.1899     0.5137 H       
  44 H44           -2.5411    -2.9091    -1.0434 H       
  45 H45           -3.6793    -1.5537    -0.8470 H       
  46 H46            0.2060    -0.7639    -2.1890 H       
  47 H47           -0.2593    -2.4452    -1.8316 H       
  48 H48           -1.3836    -0.6960    -4.0673 H       
  49 H49           -0.2757    -2.0760    -4.2653 H       
  50 H50           -4.1071    -2.8550    -2.9418 H       
  51 H51           -3.6716    -1.1611    -3.2770 H       
  52 H52            4.5692    -4.0128     0.3632 H       
  53 H53            9.4766    -5.2373     0.6639 H       
  54 H54            9.2427    -6.2951    -0.7483 H       
  55 H55            9.2392    -4.5267    -0.9507 H       
  56 H56            4.1468    -7.3819    -1.6454 H       
  57 H57            2.6887    -7.7086    -0.6782 H       
  58 H58            3.1474    -6.0312    -1.0579 H       
  59 H59            5.4883    -8.3173     1.6987 H       
  60 H60            4.0557    -9.0437     0.9316 H       
  61 H61            5.5138    -8.7169    -0.0356 H       
  62 H62            3.1116    -5.4704     1.3766 H       
  63 H63            2.6529    -7.1478     1.7563 H       
  64 H64            4.0855    -6.4215     2.5234 H       
@<TRIPOS>BOND
   1    1    2 ar
   2    1    5 ar
   3    1   35 1
   4    2   17 ar
   5    2   20 1
   6    3    4 ar
   7    3    6 1
   8    3   17 ar
   9    4    5 ar
  10    4    8 1
  11    5   36 1
  12    6    7 2
  13    7    8 1
  14    7    9 1
  15    8   37 1
  16    9   10 1
  17    9   13 2
  18   10   11 2
  19   10   14 1
  20   11   12 1
  21   11   38 1
  22   12   13 1
  23   12   39 1
  24   14   15 am
  25   14   40 1
  26   15   16 2
  27   15   18 1
  28   17   41 1
  29   18   19 1
  30   18   29 2
  31   19   27 1
  32   19   30 1
  33   20   21 1
  34   20   42 1
  35   20   43 1
  36   21   22 1
  37   21   23 1
  38   22   26 1
  39   22   44 1
  40   22   45 1
  41   23   24 1
  42   23   46 1
  43   23   47 1
  44   24   25 1
  45   24   48 1
  46   24   49 1
  47   25   26 1
  48   26   50 1
  49   26   51 1
  50   27   28 2
  51   28   29 1
  52   28   31 1
  53   29   52 1
  54   30   53 1
  55   30   54 1
  56   30   55 1
  57   31   32 1
  58   31   33 1
  59   31   34 1
  60   32   56 1
  61   32   57 1
  62   32   58 1
  63   33   59 1
  64   33   60 1
  65   33   61 1
  66   34   62 1
  67   34   63 1
  68   34   64 1

#	End of record

