#	Name: ASD07300692
#	Creating user name:	WinNT
#	Creation time:	15. 06. 2019 21:10

#	Modifying user name:	WinNT
#	Modification time:	15. 06. 2019 21:10

#	Program:	/corina/corina34_cracker 3.40 0067  02.08.2006

@<TRIPOS>MOLECULE
ASD07300692
  43   47    0    0    0
SMALL
NO_CHARGES


@<TRIPOS>ATOM
   1 C1            -0.0034     1.3930     0.2418 C.2     
   2 C2             0.0021    -0.0041     0.0020 C.2     
   3 N3             1.1910     2.0672     0.2269 N.pl3   
   4 N4             1.1441    -0.6202    -0.2281 N.2     
   5 C5             2.3025     0.0467    -0.2404 C.2     
   6 C6             2.3479     1.3757    -0.0182 C.2     
   7 N7            -0.9701     2.2587     0.5010 N.2     
   8 C8            -0.4510     3.4736     0.6499 C.2     
   9 C9             0.9145     3.3827     0.4828 C.2     
  10 N10           -1.1861    -0.7177     0.0100 N.pl3   
  11 C11           -2.4814    -0.0309     0.1360 C.3     
  12 C12           -3.4039    -0.5296    -0.9821 C.3     
  13 O13           -3.4384    -1.9587    -0.9615 O.3     
  14 C14           -2.1750    -2.5783    -1.2140 C.3     
  15 C15           -1.1899    -2.1840    -0.1135 C.3     
  16 C16           -1.2218     4.7323     0.9541 C.3     
  17 C17           -2.2934     5.1642    -0.0489 C.3     
  18 C18           -2.7033     4.5856     1.3069 C.3     
  19 C19            1.6349     5.7090    -0.0636 C.ar    
  20 C20            1.8898     4.4898     0.5664 C.ar    
  21 C21            3.0848     4.3333     1.2793 C.ar    
  22 C22            3.9642     5.3999     1.3277 C.ar    
  23 C23            3.6381     6.5773     0.6758 C.ar    
  24 N24            2.5036     6.6961     0.0110 N.ar    
  25 Cl25           4.7383     7.9189     0.7342 Cl      
  26 H26            3.2201    -0.4896    -0.4320 H       
  27 H27            3.2951     1.8943    -0.0326 H       
  28 H28           -2.9243    -0.2575     1.1059 H       
  29 H29           -2.3371     1.0453     0.0402 H       
  30 H30           -4.4094    -0.1389    -0.8259 H       
  31 H31           -3.0255    -0.1884    -1.9457 H       
  32 H32           -2.2965    -3.6615    -1.2248 H       
  33 H33           -1.7922    -2.2446    -2.1785 H       
  34 H34           -0.1908    -2.5330    -0.3744 H       
  35 H35           -1.5005    -2.6311     0.8308 H       
  36 H36           -0.6592     5.5176     1.4590 H       
  37 H37           -2.4361     6.2337    -0.2035 H       
  38 H38           -2.4409     4.5380    -0.9287 H       
  39 H39           -3.1204     3.5787     1.3190 H       
  40 H40           -3.1157     5.2744     2.0442 H       
  41 H41            0.7194     5.8426    -0.6207 H       
  42 H42            3.3138     3.4036     1.7790 H       
  43 H43            4.8952     5.3154     1.8685 H       
@<TRIPOS>BOND
   1    1    2 1
   2    1    3 1
   3    1    7 2
   4    2    4 2
   5    2   10 1
   6    3    6 1
   7    3    9 1
   8    4    5 1
   9    5    6 2
  10    5   26 1
  11    6   27 1
  12    7    8 1
  13    8    9 2
  14    8   16 1
  15    9   20 1
  16   10   11 1
  17   10   15 1
  18   11   12 1
  19   11   28 1
  20   11   29 1
  21   12   13 1
  22   12   30 1
  23   12   31 1
  24   13   14 1
  25   14   15 1
  26   14   32 1
  27   14   33 1
  28   15   34 1
  29   15   35 1
  30   16   17 1
  31   16   18 1
  32   16   36 1
  33   17   18 1
  34   17   37 1
  35   17   38 1
  36   18   39 1
  37   18   40 1
  38   19   20 ar
  39   19   24 ar
  40   19   41 1
  41   20   21 ar
  42   21   22 ar
  43   21   42 1
  44   22   23 ar
  45   22   43 1
  46   23   24 ar
  47   23   25 1

#	End of record

