#	Name: ASD03332163
#	Creating user name:	WinNT
#	Creation time:	15. 06. 2019 20:40

#	Modifying user name:	WinNT
#	Modification time:	15. 06. 2019 20:40

#	Program:	/corina/corina34_cracker 3.40 0067  02.08.2006

@<TRIPOS>MOLECULE
ASD03332163
  62   64    0    0    0
SMALL
NO_CHARGES


@<TRIPOS>ATOM
   1 C1            -0.0119     1.8123    -0.3188 C.2     
   2 N2            -0.0437     0.4695    -0.1502 N.pl3   
   3 C3             1.2454     0.0422    -0.0049 C.2     
   4 N4             2.0405     1.0869    -0.0624 N.2     
   5 C5             1.2941     2.1959    -0.2525 C.2     
   6 C6             1.8011     3.5749    -0.3673 C.2     
   7 O7             1.0253     4.4957    -0.5389 O.2     
   8 N8             3.1244     3.8156    -0.2822 N.am    
   9 C9             3.6284     5.1864    -0.3963 C.3     
  10 C10            3.8074     5.5427    -1.8734 C.3     
  11 C11            4.9548     5.2945     0.3108 C.2     
  12 O12            5.6706     4.3204     0.4094 O.2     
  13 C13           -1.2547    -0.3552    -0.1151 C.3     
  14 C14           -2.1604     0.0318    -1.2881 C.3     
  15 C15           -3.0712     1.1845    -0.8774 C.3     
  16 N16           -2.3926     2.0817     0.0603 N.3     
  17 C17           -1.2076     2.6990    -0.5533 C.3     
  18 C18            1.6726    -1.3545     0.1843 C.2     
  19 O19            2.1883    -4.0350     0.3476 O.3     
  20 C20            3.2264    -3.2400    -0.2411 C.3     
  21 C21            2.5938    -1.9758    -0.8295 C.3     
  22 N22            5.3456     6.4736     0.8338 N.am    
  23 C23           -3.3147     3.1051     0.5706 C.3     
  24 C24            1.2383    -2.0160     1.2400 C.2     
  25 C25            1.6277    -3.4401     1.5197 C.3     
  26 C26            4.8102     4.5798    -2.5124 C.3     
  27 C27            6.6768     6.6046     1.4313 C.3     
  28 C28            2.4617     5.4285    -2.5923 C.3     
  29 C29            4.3295     6.9759    -1.9927 C.3     
  30 H30            3.7431     3.0812    -0.1454 H       
  31 H31            2.9165     5.8744     0.0597 H       
  32 H32           -0.9815    -1.4072    -0.1974 H       
  33 H33           -1.7826    -0.1873     0.8236 H       
  34 H34           -1.5461     0.3390    -2.1345 H       
  35 H35           -2.7685    -0.8261    -1.5750 H       
  36 H36           -3.3596     1.7467    -1.7655 H       
  37 H37           -3.9664     0.7819    -0.4033 H       
  38 H38           -1.0309     3.6756    -0.1026 H       
  39 H39           -1.3707     2.8150    -1.6247 H       
  40 H40            3.9555    -2.9665     0.5216 H       
  41 H41            3.7158    -3.8055    -1.0340 H       
  42 H42            2.0273    -2.2358    -1.7236 H       
  43 H43            3.3781    -1.2654    -1.0908 H       
  44 H44            4.7455     7.2354     0.8145 H       
  45 H45           -4.1440     2.6218     1.0872 H       
  46 H46           -2.7851     3.7577     1.2646 H       
  47 H47           -3.6992     3.6950    -0.2614 H       
  48 H48            0.5770    -1.5139     1.9307 H       
  49 H49            0.7453    -4.0030     1.8240 H       
  50 H50            2.3633    -3.4625     2.3236 H       
  51 H51            4.4383     3.5587    -2.4273 H       
  52 H52            4.9378     4.8336    -3.5647 H       
  53 H53            5.7690     4.6611    -2.0002 H       
  54 H54            6.7734     5.9038     2.2606 H       
  55 H55            7.4355     6.3854     0.6800 H       
  56 H56            6.8119     7.6222     1.7979 H       
  57 H57            1.7473     6.1145    -2.1371 H       
  58 H58            2.5892     5.6823    -3.6447 H       
  59 H59            2.0898     4.4075    -2.5073 H       
  60 H60            5.3304     7.0348    -1.5652 H       
  61 H61            4.3658     7.2630    -3.0436 H       
  62 H62            3.6641     7.6509    -1.4544 H       
@<TRIPOS>BOND
   1    1    2 1
   2    1    5 2
   3    1   17 1
   4    2    3 1
   5    2   13 1
   6    3    4 2
   7    3   18 1
   8    4    5 1
   9    5    6 1
  10    6    7 2
  11    6    8 am
  12    8    9 1
  13    8   30 1
  14    9   10 1
  15    9   11 1
  16    9   31 1
  17   10   26 1
  18   10   28 1
  19   10   29 1
  20   11   12 2
  21   11   22 am
  22   13   14 1
  23   13   32 1
  24   13   33 1
  25   14   15 1
  26   14   34 1
  27   14   35 1
  28   15   16 1
  29   15   36 1
  30   15   37 1
  31   16   17 1
  32   16   23 1
  33   17   38 1
  34   17   39 1
  35   18   24 2
  36   18   21 1
  37   19   20 1
  38   19   25 1
  39   20   21 1
  40   20   40 1
  41   20   41 1
  42   21   42 1
  43   21   43 1
  44   22   27 1
  45   22   44 1
  46   23   45 1
  47   23   46 1
  48   23   47 1
  49   24   25 1
  50   24   48 1
  51   25   49 1
  52   25   50 1
  53   26   51 1
  54   26   52 1
  55   26   53 1
  56   27   54 1
  57   27   55 1
  58   27   56 1
  59   28   57 1
  60   28   58 1
  61   28   59 1
  62   29   60 1
  63   29   61 1
  64   29   62 1

#	End of record

