#	Name: ASD08150365
#	Creating user name:	WinNT
#	Creation time:	15. 06. 2019 21:15

#	Modifying user name:	WinNT
#	Modification time:	15. 06. 2019 21:15

#	Program:	/corina/corina34_cracker 3.40 0067  02.08.2006

@<TRIPOS>MOLECULE
ASD08150365
  61   63    0    0    0
SMALL
NO_CHARGES


@<TRIPOS>ATOM
   1 C1             0.7759     0.6173     1.7582 C.2     
   2 N2             0.6680    -0.6414     1.2889 N.am    
   3 O3             1.8318     1.2115     1.6666 O.2     
   4 O4            -0.2879     1.2184     2.3237 O.3     
   5 C5             1.8238    -1.2933     0.6681 C.3     
   6 C6             2.6946    -1.9292     1.7536 C.3     
   7 C7             3.2793    -0.8324     2.6459 C.3     
   8 C8             4.1501    -1.4683     3.7314 C.3     
   9 N9             0.2875    -3.0401     0.0336 N.2     
  10 C10            1.3476    -2.3607    -0.2832 C.2     
  11 N11            2.0502    -2.5633    -1.4306 N.am    
  12 C12            1.6628    -3.5095    -2.3172 C.2     
  13 C13            0.4655    -4.2963    -1.9876 C.ar    
  14 C14           -0.0165    -5.2936    -2.8332 C.ar    
  15 C15           -1.1435    -6.0006    -2.4756 C.ar    
  16 C16           -1.8001    -5.7268    -1.2827 C.ar    
  17 C17           -1.3406    -4.7455    -0.4336 C.ar    
  18 C18           -0.1996    -4.0155    -0.7734 C.ar    
  19 C19            3.1841    -1.7854    -1.6967 C.ar    
  20 C20            4.4377    -2.2194    -1.2861 C.ar    
  21 C21            5.5539    -1.4503    -1.5505 C.ar    
  22 C22            5.4242    -0.2489    -2.2228 C.ar    
  23 C23            4.1772     0.1863    -2.6325 C.ar    
  24 C24            3.0578    -0.5812    -2.3767 C.ar    
  25 O25            2.2815    -3.7014    -3.3479 O.2     
  26 C26            0.6896    -5.5962    -4.1297 C.3     
  27 N27            4.7115    -0.4152     4.5880 N.3     
  28 C28           -0.0990     2.5745     2.8071 C.3     
  29 C29            0.3132     3.4781     1.6433 C.3     
  30 C30           -1.4074     3.0871     3.4122 C.3     
  31 C31            0.9963     2.5872     3.8753 C.3     
  32 H32           -0.1749    -1.1158     1.3620 H       
  33 H33            2.4079    -0.5533     0.1210 H       
  34 H34            2.0876    -2.6037     2.3575 H       
  35 H35            3.5054    -2.4890     1.2874 H       
  36 H36            3.8863    -0.1579     2.0420 H       
  37 H37            2.4686    -0.2726     3.1121 H       
  38 H38            3.5431    -2.1428     4.3353 H       
  39 H39            4.9609    -2.0281     3.2652 H       
  40 H40           -1.5198    -6.7742    -3.1285 H       
  41 H41           -2.6825    -6.2906    -1.0181 H       
  42 H42           -1.8600    -4.5411     0.4909 H       
  43 H43            4.5395    -3.1573    -0.7604 H       
  44 H44            6.5291    -1.7873    -1.2314 H       
  45 H45            6.2985     0.3510    -2.4280 H       
  46 H46            4.0790     1.1254    -3.1568 H       
  47 H47            2.0848    -0.2431    -2.7012 H       
  48 H48            1.5219    -6.2742    -3.9406 H       
  49 H49           -0.0092    -6.0635    -4.8236 H       
  50 H50            1.0668    -4.6698    -4.5628 H       
  51 H51            5.2910    -0.8100     5.3136 H       
  52 H52            5.2255     0.2596     4.0417 H       
  53 H53           -0.4671     3.4690     0.8823 H       
  54 H54            0.4550     4.4960     2.0062 H       
  55 H55            1.2453     3.1128     1.2122 H       
  56 H56           -1.7011     2.4434     4.2413 H       
  57 H57           -1.2656     4.1051     3.7751 H       
  58 H58           -2.1877     3.0781     2.6512 H       
  59 H59            1.9285     2.2220     3.4443 H       
  60 H60            1.1381     3.6052     4.2382 H       
  61 H61            0.7027     1.9435     4.7045 H       
@<TRIPOS>BOND
   1    1    2 am
   2    1    3 2
   3    1    4 1
   4    2    5 1
   5    2   32 1
   6    4   28 1
   7    5    6 1
   8    5   10 1
   9    5   33 1
  10    6    7 1
  11    6   34 1
  12    6   35 1
  13    7    8 1
  14    7   36 1
  15    7   37 1
  16    8   27 1
  17    8   38 1
  18    8   39 1
  19    9   10 2
  20    9   18 1
  21   10   11 1
  22   11   12 am
  23   11   19 1
  24   12   13 1
  25   12   25 2
  26   13   14 ar
  27   13   18 ar
  28   14   15 ar
  29   14   26 1
  30   15   16 ar
  31   15   40 1
  32   16   17 ar
  33   16   41 1
  34   17   18 ar
  35   17   42 1
  36   19   20 ar
  37   19   24 ar
  38   20   21 ar
  39   20   43 1
  40   21   22 ar
  41   21   44 1
  42   22   23 ar
  43   22   45 1
  44   23   24 ar
  45   23   46 1
  46   24   47 1
  47   26   48 1
  48   26   49 1
  49   26   50 1
  50   27   51 1
  51   27   52 1
  52   28   29 1
  53   28   31 1
  54   28   30 1
  55   29   53 1
  56   29   54 1
  57   29   55 1
  58   30   56 1
  59   30   57 1
  60   30   58 1
  61   31   59 1
  62   31   60 1
  63   31   61 1

#	End of record

