#	Name: ASD03491020
#	Creating user name:	WinNT
#	Creation time:	15. 06. 2019 20:42

#	Modifying user name:	WinNT
#	Modification time:	15. 06. 2019 20:42

#	Program:	/corina/corina34_cracker 3.40 0067  02.08.2006

@<TRIPOS>MOLECULE
ASD03491020
  63   66    0    0    0
SMALL
NO_CHARGES


@<TRIPOS>ATOM
   1 C1            -0.0387     1.3014    -0.3593 C.ar    
   2 C2             0.0868     0.0084    -0.8751 C.ar    
   3 C3             1.3207    -0.6497    -0.8044 C.ar    
   4 C4             2.4108    -0.0087    -0.2206 C.ar    
   5 C5             2.2694     1.2750     0.2867 C.ar    
   6 C6             1.0490     1.9236     0.2158 C.ar    
   7 C7             0.9079     3.3176     0.7708 C.3     
   8 N8             3.6473    -0.6589    -0.1453 N.am    
   9 C9             4.7889     0.0494    -0.2532 C.2     
  10 O10            4.7458     1.2338    -0.5174 O.2     
  11 C11            7.3490     0.1212    -0.2759 C.ar    
  12 C12            8.6429    -0.5608    -0.2147 C.ar    
  13 C13            9.8230     0.1845    -0.4450 C.ar    
  14 C14            9.7270     1.5682    -0.7289 C.ar    
  15 C15            8.4882     2.1884    -0.7810 C.ar    
  16 C16            7.3182     1.4871    -0.5596 C.ar    
  17 C17            8.7331    -1.9281     0.0661 C.ar    
  18 C18            9.9579    -2.5276     0.1147 C.ar    
  19 C19           11.1201    -1.7962    -0.1111 C.ar    
  20 C20           11.0659    -0.4625    -0.3880 C.ar    
  21 C21            1.8713     4.2566     0.0420 C.3     
  22 C22           -0.5286     3.8039     0.5690 C.3     
  23 C23            1.2379     3.3076     2.2648 C.3     
  24 C24            6.1039    -0.6210    -0.0484 C.2     
  25 O25            6.1451    -1.7821     0.3070 O.2     
  26 C26           10.9557     2.3568    -0.9707 C.ar    
  27 C27           12.0365     2.2948    -0.0839 C.ar    
  28 C28           13.1628     3.0471    -0.3483 C.ar    
  29 N29           13.2281     3.8160    -1.4179 N.ar    
  30 C30           12.2327     3.9037    -2.2791 C.ar    
  31 C31           11.0716     3.1813    -2.0961 C.ar    
  32 C32           12.3681     4.8003    -3.4828 C.3     
  33 O33            1.4537    -1.9059    -1.3018 O.3     
  34 C34            1.8397    -2.0234    -2.6727 C.3     
  35 C35           -1.0414    -0.6404    -1.4725 C.1     
  36 N36           -1.9364    -1.1551    -1.9464 N.1     
  37 H37           -0.9870     1.8151    -0.4153 H       
  38 H38            3.1159     1.7704     0.7390 H       
  39 H39            3.6831    -1.6195    -0.0154 H       
  40 H40            8.4364     3.2450    -0.9987 H       
  41 H41            6.3698     2.0015    -0.6079 H       
  42 H42            7.8382    -2.5061     0.2438 H       
  43 H43           10.0263    -3.5834     0.3317 H       
  44 H44           12.0784    -2.2923    -0.0670 H       
  45 H45           11.9756     0.0933    -0.5612 H       
  46 H46            1.6363     4.2637    -1.0223 H       
  47 H47            1.7693     5.2648     0.4434 H       
  48 H48            2.8948     3.9101     0.1858 H       
  49 H49           -1.2150     3.1350     1.0882 H       
  50 H50           -0.6306     4.8122     0.9704 H       
  51 H51           -0.7637     3.8111    -0.4953 H       
  52 H52            2.2613     2.9611     2.4085 H       
  53 H53            1.1359     4.3158     2.6662 H       
  54 H54            0.5515     2.6386     2.7839 H       
  55 H55           11.9897     1.6679     0.7943 H       
  56 H56           14.0022     3.0060     0.3301 H       
  57 H57           10.2608     3.2578    -2.8054 H       
  58 H58           12.7969     4.2352    -4.3104 H       
  59 H59           11.3854     5.1750    -3.7692 H       
  60 H60           13.0200     5.6393    -3.2394 H       
  61 H61            1.9093    -3.0774    -2.9415 H       
  62 H62            1.0955    -1.5362    -3.3027 H       
  63 H63            2.8086    -1.5461    -2.8195 H       
@<TRIPOS>BOND
   1    1    2 ar
   2    1    6 ar
   3    1   37 1
   4    2    3 ar
   5    2   35 1
   6    3    4 ar
   7    3   33 1
   8    4    5 ar
   9    4    8 1
  10    5    6 ar
  11    5   38 1
  12    6    7 1
  13    7   21 1
  14    7   22 1
  15    7   23 1
  16    8    9 am
  17    8   39 1
  18    9   10 2
  19    9   24 1
  20   11   12 ar
  21   11   16 ar
  22   11   24 1
  23   12   13 ar
  24   12   17 ar
  25   13   14 ar
  26   13   20 ar
  27   14   15 ar
  28   14   26 1
  29   15   16 ar
  30   15   40 1
  31   16   41 1
  32   17   18 ar
  33   17   42 1
  34   18   19 ar
  35   18   43 1
  36   19   20 ar
  37   19   44 1
  38   20   45 1
  39   21   46 1
  40   21   47 1
  41   21   48 1
  42   22   49 1
  43   22   50 1
  44   22   51 1
  45   23   52 1
  46   23   53 1
  47   23   54 1
  48   24   25 2
  49   26   27 ar
  50   26   31 ar
  51   27   28 ar
  52   27   55 1
  53   28   29 ar
  54   28   56 1
  55   29   30 ar
  56   30   31 ar
  57   30   32 1
  58   31   57 1
  59   32   58 1
  60   32   59 1
  61   32   60 1
  62   33   34 1
  63   34   61 1
  64   34   62 1
  65   34   63 1
  66   35   36 3

#	End of record

