#	Name: ASD03090584
#	Creating user name:	WinNT
#	Creation time:	15. 06. 2019 20:29

#	Modifying user name:	WinNT
#	Modification time:	15. 06. 2019 20:29

#	Program:	/corina/corina34_cracker 3.40 0067  02.08.2006

@<TRIPOS>MOLECULE
ASD03090584
  32   33    0    0    0
SMALL
NO_CHARGES


@<TRIPOS>ATOM
   1 N1            -0.1766     1.3451    -0.5681 N.am    
   2 C2            -0.1679    -0.0024    -0.5927 C.2     
   3 O3             0.7312    -0.5944    -1.1582 O.2     
   4 N4            -1.1558    -0.6938     0.0094 N.am    
   5 C5            -1.1931    -2.0934    -0.0881 C.ar    
   6 C6            -2.4053    -2.7686     0.0336 C.ar    
   7 C7            -2.4394    -4.1496    -0.0629 C.ar    
   8 C8            -1.2671    -4.8582    -0.2805 C.ar    
   9 C9            -0.0600    -4.1844    -0.4016 C.ar    
  10 C10           -0.0240    -2.8048    -0.3113 C.ar    
  11 O11           -1.3006    -6.2144    -0.3749 O.3     
  12 C12           -2.5770    -6.8428    -0.2402 C.3     
  13 O13           -3.5539    -2.0725     0.2474 O.3     
  14 C14           -4.7600    -2.8303     0.3622 C.3     
  15 Cl15           1.4058    -5.0739    -0.6734 Cl      
  16 S16            0.9565     3.7635    -1.2355 S.3     
  17 C17            0.8424     2.0583    -1.1892 C.2     
  18 N18            1.8439     1.5271    -1.8171 N.2     
  19 C19            2.7231     2.3562    -2.3500 C.2     
  20 C20            2.4502     3.6494    -2.1624 C.2     
  21 Br21           3.4863     5.1045    -2.7828 Br      
  22 H22           -0.8960     1.8174    -0.1205 H       
  23 H23           -1.8411    -0.2240     0.5101 H       
  24 H24           -3.3784    -4.6748     0.0316 H       
  25 H25            0.9156    -2.2817    -0.4106 H       
  26 H26           -2.9968    -6.6068     0.7376 H       
  27 H27           -3.2455    -6.4784    -1.0202 H       
  28 H28           -2.4622    -7.9226    -0.3353 H       
  29 H29           -4.9249    -3.3922    -0.5572 H       
  30 H30           -4.6762    -3.5218     1.2006 H       
  31 H31           -5.5988    -2.1549     0.5306 H       
  32 H32            3.5925     2.0156    -2.8927 H       
@<TRIPOS>BOND
   1    1    2 am
   2    1   17 1
   3    1   22 1
   4    2    3 2
   5    2    4 am
   6    4    5 1
   7    4   23 1
   8    5    6 ar
   9    5   10 ar
  10    6    7 ar
  11    6   13 1
  12    7    8 ar
  13    7   24 1
  14    8    9 ar
  15    8   11 1
  16    9   10 ar
  17    9   15 1
  18   10   25 1
  19   11   12 1
  20   12   26 1
  21   12   27 1
  22   12   28 1
  23   13   14 1
  24   14   29 1
  25   14   30 1
  26   14   31 1
  27   16   17 1
  28   16   20 1
  29   17   18 2
  30   18   19 1
  31   19   20 2
  32   19   32 1
  33   20   21 1

#	End of record

