#	Name: ASD05130086
#	Creating user name:	WinNT
#	Creation time:	15. 06. 2019 20:56

#	Modifying user name:	WinNT
#	Modification time:	15. 06. 2019 20:56

#	Program:	/corina/corina34_cracker 3.40 0067  02.08.2006

@<TRIPOS>MOLECULE
ASD05130086
  56   59    0    0    0
SMALL
NO_CHARGES


@<TRIPOS>ATOM
   1 N1            -0.1189     1.2688     0.5833 N.am    
   2 C2            -0.1486    -0.0786     0.5737 C.2     
   3 O3             0.7982    -0.7107     1.0010 O.2     
   4 N4            -1.2278    -0.7254     0.0905 N.am    
   5 C5            -1.2121    -2.1220    -0.0300 C.ar    
   6 C6            -2.4078    -2.8340    -0.0257 C.ar    
   7 C7            -2.3965    -4.2123    -0.1445 C.ar    
   8 C8            -1.1969    -4.8890    -0.2675 C.ar    
   9 C9             0.0057    -4.1810    -0.2725 C.ar    
  10 C10           -0.0069    -2.7923    -0.1591 C.ar    
  11 F11           -1.1890    -6.2350    -0.3824 F       
  12 F12           -3.5824    -2.1777     0.0951 F       
  13 N13            2.9015    -5.8908    -1.9718 N.am    
  14 C14            2.0443    -4.8805    -1.6820 C.2     
  15 C15            1.2939    -4.9046    -0.4044 C.2     
  16 C16            1.8038    -5.5972     0.6397 C.2     
  17 C17            3.1057    -6.3132     0.4175 C.3     
  18 C18            3.3572    -7.4031     1.4187 C.2     
  19 N19            4.1851    -8.3518     1.1090 N.2     
  20 C20            4.8401    -8.3749    -0.0903 C.2     
  21 C21            4.3554    -7.7198    -1.1580 C.2     
  22 C22            3.0799    -6.9449    -0.9809 C.3     
  23 O23            1.8930    -3.9622    -2.4642 O.2     
  24 N24            6.0320    -9.0904    -0.2073 N.pl3   
  25 C25            6.5716    -9.8089     0.9498 C.3     
  26 C26            3.6228    -5.9249    -3.2465 C.3     
  27 C27            4.9558    -5.1886    -3.0980 C.3     
  28 C28            0.9512     1.9408     1.1845 C.ar    
  29 C29            1.4098     3.1369     0.6493 C.ar    
  30 C30            2.4679     3.7997     1.2452 C.ar    
  31 C31            3.0694     3.2709     2.3748 C.ar    
  32 C32            2.6138     2.0778     2.9099 C.ar    
  33 C33            1.5519     1.4151     2.3205 C.ar    
  34 F34            3.2029     1.5634     4.0115 F       
  35 F35            2.9149     4.9635     0.7245 F       
  36 H36           -0.8372     1.7727     0.1698 H       
  37 H37           -2.0153    -0.2246    -0.1739 H       
  38 H38           -3.3267    -4.7611    -0.1407 H       
  39 H39            0.9213    -2.2402    -0.1670 H       
  40 H40            1.2968    -5.6336     1.5926 H       
  41 H41            3.9231    -5.5932     0.4573 H       
  42 H42            2.8593    -7.3969     2.3771 H       
  43 H43            4.8645    -7.7485    -2.1100 H       
  44 H44            2.2436    -7.6412    -1.0439 H       
  45 H45            6.5034    -9.1122    -1.0547 H       
  46 H46            6.7664    -9.1031     1.7573 H       
  47 H47            5.8493   -10.5535     1.2844 H       
  48 H48            7.5007   -10.3047     0.6686 H       
  49 H49            3.8095    -6.9605    -3.5307 H       
  50 H50            3.0233    -5.4392    -4.0163 H       
  51 H51            5.4925    -5.2140    -4.0464 H       
  52 H52            4.7692    -4.1531    -2.8137 H       
  53 H53            5.5554    -5.6744    -2.3281 H       
  54 H54            0.9411     3.5495    -0.2319 H       
  55 H55            3.8953     3.7895     2.8389 H       
  56 H56            1.1937     0.4870     2.7410 H       
@<TRIPOS>BOND
   1    1    2 am
   2    1   28 1
   3    1   36 1
   4    2    3 2
   5    2    4 am
   6    4    5 1
   7    4   37 1
   8    5    6 ar
   9    5   10 ar
  10    6    7 ar
  11    6   12 1
  12    7    8 ar
  13    7   38 1
  14    8    9 ar
  15    8   11 1
  16    9   10 ar
  17    9   15 1
  18   10   39 1
  19   13   14 am
  20   13   22 1
  21   13   26 1
  22   14   15 1
  23   14   23 2
  24   15   16 2
  25   16   17 1
  26   16   40 1
  27   17   18 1
  28   17   22 1
  29   17   41 1
  30   18   19 2
  31   18   42 1
  32   19   20 1
  33   20   21 2
  34   20   24 1
  35   21   22 1
  36   21   43 1
  37   22   44 1
  38   24   25 1
  39   24   45 1
  40   25   46 1
  41   25   47 1
  42   25   48 1
  43   26   27 1
  44   26   49 1
  45   26   50 1
  46   27   51 1
  47   27   52 1
  48   27   53 1
  49   28   29 ar
  50   28   33 ar
  51   29   30 ar
  52   29   54 1
  53   30   31 ar
  54   30   35 1
  55   31   32 ar
  56   31   55 1
  57   32   33 ar
  58   32   34 1
  59   33   56 1

#	End of record

