#	Name: ASD01900119
#	Creating user name:	WinNT
#	Creation time:	15. 06. 2019 19:51

#	Modifying user name:	WinNT
#	Modification time:	15. 06. 2019 19:51

#	Program:	/corina/corina34_cracker 3.40 0067  02.08.2006

@<TRIPOS>MOLECULE
ASD01900119
  69   73    0    0    0
SMALL
NO_CHARGES


@<TRIPOS>ATOM
   1 C1             3.7493     0.5276     0.8723 C.ar    
   2 C2             4.3954    -0.6759     0.8161 C.ar    
   3 C3             5.7371    -0.7430     0.4507 C.ar    
   4 C4             6.4408     0.4138     0.1447 C.ar    
   5 C5             5.7993     1.6367     0.2035 C.ar    
   6 C6             4.4386     1.6984     0.5596 C.ar    
   7 N7             6.4633     2.8264    -0.0747 N.pl3   
   8 C8             5.6943     3.9571    -0.6068 C.3     
   9 N9             4.4274     4.0925     0.1130 N.am    
  10 C10            3.7824     3.0144     0.6007 C.2     
  11 C11            3.8757     5.3661     0.2996 C.ar    
  12 C12            4.3857     6.2073     1.2796 C.ar    
  13 C13            3.8411     7.4629     1.4631 C.ar    
  14 C14            2.7845     7.8838     0.6690 C.ar    
  15 C15            2.2744     7.0440    -0.3103 C.ar    
  16 C16            2.8220     5.7905    -0.4991 C.ar    
  17 O17            2.6661     3.1284     1.0705 O.2     
  18 O18            2.2481     9.1200     0.8508 O.3     
  19 C19            6.5099     5.2435    -0.4463 C.3     
  20 C20            5.4143     3.7241    -2.0941 C.3     
  21 C21            4.6715     4.9350    -2.6633 C.3     
  22 N22            5.4883     6.1420    -2.4832 N.3     
  23 C23            5.7340     6.4110    -1.0608 C.3     
  24 C24            4.8669     7.3007    -3.1384 C.3     
  25 C25            1.1713     9.4932    -0.0113 C.3     
  26 O26            6.3612    -1.9469     0.3937 O.3     
  27 F27            0.0933     8.6237     0.1858 F       
  28 F28            0.7735    10.8026     0.2794 F       
  29 F29            1.5930     9.4188    -1.3432 F       
  30 C30            5.5807    -3.0983     0.7210 C.3     
  31 C31            6.4479    -4.3531     0.6015 C.3     
  32 O32            7.4866    -4.3093     1.5819 O.3     
  33 C33            8.3585    -5.4412     1.5560 C.3     
  34 C34            5.6768     8.5374    -2.8456 C.ar    
  35 C35            6.7203     8.8931    -3.6799 C.ar    
  36 C36            7.4644    10.0285    -3.4116 C.ar    
  37 C37            7.1620    10.8086    -2.3055 C.ar    
  38 C38            6.1170    10.4499    -1.4725 C.ar    
  39 C39            5.3719     9.3180    -1.7465 C.ar    
  40 F40            7.8874    11.9174    -2.0414 F       
  41 F41            8.4845    10.3765    -4.2261 F       
  42 H42            2.7074     0.5707     1.1537 H       
  43 H43            3.8603    -1.5824     1.0575 H       
  44 H44            7.4819     0.3587    -0.1370 H       
  45 H45            7.4174     2.9074     0.0805 H       
  46 H46            5.2079     5.8794     1.8984 H       
  47 H47            4.2377     8.1172     2.2253 H       
  48 H48            1.4515     7.3723    -0.9279 H       
  49 H49            2.4277     5.1385    -1.2644 H       
  50 H50            6.6805     5.4369     0.6127 H       
  51 H51            7.4671     5.1339    -0.9562 H       
  52 H52            6.3567     3.5922    -2.6256 H       
  53 H53            4.8003     2.8314    -2.2134 H       
  54 H54            4.4833     4.7791    -3.7255 H       
  55 H55            3.7227     5.0575    -2.1409 H       
  56 H56            4.7817     6.5267    -0.5432 H       
  57 H57            6.3159     7.3271    -0.9596 H       
  58 H58            4.8338     7.1347    -4.2152 H       
  59 H59            3.8533     7.4320    -2.7597 H       
  60 H60            5.2107    -3.0082     1.7423 H       
  61 H61            4.7374    -3.1728     0.0344 H       
  62 H62            5.8318    -5.2374     0.7641 H       
  63 H63            6.8896    -4.3961    -0.3941 H       
  64 H64            9.1186    -5.3322     2.3295 H       
  65 H65            7.7820    -6.3482     1.7384 H       
  66 H66            8.8398    -5.5068     0.5802 H       
  67 H67            6.9550     8.2846    -4.5407 H       
  68 H68            5.8809    11.0564    -0.6107 H       
  69 H69            4.5536     9.0410    -1.0984 H       
@<TRIPOS>BOND
   1    1    2 ar
   2    1    6 ar
   3    1   42 1
   4    2    3 ar
   5    2   43 1
   6    3    4 ar
   7    3   26 1
   8    4    5 ar
   9    4   44 1
  10    5    7 1
  11    5    6 ar
  12    6   10 1
  13    7    8 1
  14    7   45 1
  15    8    9 1
  16    8   20 1
  17    8   19 1
  18    9   10 am
  19    9   11 1
  20   10   17 2
  21   11   12 ar
  22   11   16 ar
  23   12   13 ar
  24   12   46 1
  25   13   14 ar
  26   13   47 1
  27   14   15 ar
  28   14   18 1
  29   15   16 ar
  30   15   48 1
  31   16   49 1
  32   18   25 1
  33   19   23 1
  34   19   50 1
  35   19   51 1
  36   20   21 1
  37   20   52 1
  38   20   53 1
  39   21   22 1
  40   21   54 1
  41   21   55 1
  42   22   23 1
  43   22   24 1
  44   23   56 1
  45   23   57 1
  46   24   34 1
  47   24   58 1
  48   24   59 1
  49   25   27 1
  50   25   28 1
  51   25   29 1
  52   26   30 1
  53   30   31 1
  54   30   60 1
  55   30   61 1
  56   31   32 1
  57   31   62 1
  58   31   63 1
  59   32   33 1
  60   33   64 1
  61   33   65 1
  62   33   66 1
  63   34   35 ar
  64   34   39 ar
  65   35   36 ar
  66   35   67 1
  67   36   37 ar
  68   36   41 1
  69   37   38 ar
  70   37   40 1
  71   38   39 ar
  72   38   68 1
  73   39   69 1

#	End of record

