#	Name: ASD00070051
#	Creating user name:	WinNT
#	Creation time:	15. 06. 2019 18:30

#	Modifying user name:	WinNT
#	Modification time:	15. 06. 2019 18:30

#	Program:	/corina/corina34_cracker 3.40 0067  02.08.2006

@<TRIPOS>MOLECULE
ASD00070051
  68   72    0    0    0
SMALL
NO_CHARGES


@<TRIPOS>ATOM
   1 C1            -0.0180     1.4730     0.0101 C.2     
   2 C2             0.0021    -0.0041     0.0020 C.ar    
   3 C3             1.2194    -0.6883    -0.0133 C.ar    
   4 C4             1.2324    -2.0666    -0.0203 C.ar    
   5 C5             0.0396    -2.7736    -0.0127 C.ar    
   6 C6            -1.1718    -2.0993     0.0025 C.ar    
   7 C7            -1.1962    -0.7212     0.0154 C.ar    
   8 O8             1.0265     2.0951     0.0035 O.2     
   9 N9            -1.1942     2.1309     0.0193 N.am    
  10 F10            0.0580    -4.1245    -0.0206 F       
  11 C11           -1.2140     3.5958     0.0274 C.3     
  12 C12           -2.5311     4.0913    -0.5734 C.3     
  13 C13           -2.5518     5.6211    -0.5649 C.3     
  14 C14           -2.4262     6.1250     0.8743 C.3     
  15 C15           -1.1092     5.6295     1.4750 C.3     
  16 C16           -1.0884     4.0996     1.4665 C.3     
  17 C17           -2.4470     7.6548     0.8827 C.3     
  18 C18           -2.4471     8.1569     2.3279 C.3     
  19 N19           -2.4670     9.6257     2.3360 N.3     
  20 C20           -2.7058    10.1414     3.6901 C.3     
  21 C21           -2.8648    11.6625     3.6374 C.3     
  22 C22           -1.5940    12.2837     3.0513 C.3     
  23 C23           -1.3415    11.6941     1.6609 C.3     
  24 C24           -1.2266    10.1720     1.7709 C.3     
  25 O25           -0.1296    16.6440     4.2827 O.3     
  26 C26            0.9563    15.7448     4.5636 C.3     
  27 C27            0.2720    14.3578     4.5230 C.3     
  28 C28           -0.9147    14.6209     3.6163 C.ar    
  29 C29           -1.0646    15.9994     3.5321 C.ar    
  30 C30           -1.7677    13.7766     2.9412 C.ar    
  31 C31           -2.7843    14.2996     2.1613 C.ar    
  32 C32           -2.9387    15.6698     2.0635 C.ar    
  33 C33           -2.0871    16.5176     2.7415 C.ar    
  34 H34            2.1490    -0.1385    -0.0199 H       
  35 H35            2.1732    -2.5967    -0.0322 H       
  36 H36           -2.0979    -2.6549     0.0084 H       
  37 H37           -2.1403    -0.1969     0.0314 H       
  38 H38           -2.0276     1.6346     0.0206 H       
  39 H39           -0.3800     3.9737    -0.5640 H       
  40 H40           -2.6206     3.7323    -1.5987 H       
  41 H41           -3.3651     3.7133     0.0180 H       
  42 H42           -1.7178     5.9990    -1.1563 H       
  43 H43           -3.4901     5.9741    -0.9929 H       
  44 H44           -3.2602     5.7470     1.4656 H       
  45 H45           -0.2752     6.0074     0.8836 H       
  46 H46           -1.0197     5.9884     2.5003 H       
  47 H47           -1.9224     3.7217     2.0579 H       
  48 H48           -0.1502     3.7466     1.8945 H       
  49 H49           -1.5645     8.0330     0.3667 H       
  50 H50           -3.3442     8.0088     0.3750 H       
  51 H51           -3.3296     7.7787     2.8439 H       
  52 H52           -1.5498     7.8029     2.8356 H       
  53 H53           -3.6145     9.6949     4.0937 H       
  54 H54           -1.8610     9.8865     4.3300 H       
  55 H55           -3.7179    11.9177     3.0088 H       
  56 H56           -3.0265    12.0466     4.6446 H       
  57 H57           -0.7471    12.0615     3.7005 H       
  58 H58           -2.1706    11.9497     1.0012 H       
  59 H59           -0.4148    12.1007     1.2560 H       
  60 H60           -0.3887     9.9170     2.4198 H       
  61 H61           -1.0610     9.7478     0.7806 H       
  62 H62            1.7266    15.8179     3.7959 H       
  63 H63            1.3740    15.9405     5.5512 H       
  64 H64            0.9349    13.6089     4.0898 H       
  65 H65           -0.0569    14.0564     5.5175 H       
  66 H66           -3.4544    13.6395     1.6306 H       
  67 H67           -3.7300    16.0790     1.4528 H       
  68 H68           -2.2149    17.5869     2.6600 H       
@<TRIPOS>BOND
   1    1    2 1
   2    1    8 2
   3    1    9 am
   4    2    3 ar
   5    2    7 ar
   6    3    4 ar
   7    3   34 1
   8    4    5 ar
   9    4   35 1
  10    5    6 ar
  11    5   10 1
  12    6    7 ar
  13    6   36 1
  14    7   37 1
  15    9   11 1
  16    9   38 1
  17   11   12 1
  18   11   16 1
  19   11   39 1
  20   12   13 1
  21   12   40 1
  22   12   41 1
  23   13   14 1
  24   13   42 1
  25   13   43 1
  26   14   15 1
  27   14   17 1
  28   14   44 1
  29   15   16 1
  30   15   45 1
  31   15   46 1
  32   16   47 1
  33   16   48 1
  34   17   18 1
  35   17   49 1
  36   17   50 1
  37   18   19 1
  38   18   51 1
  39   18   52 1
  40   19   20 1
  41   19   24 1
  42   20   21 1
  43   20   53 1
  44   20   54 1
  45   21   22 1
  46   21   55 1
  47   21   56 1
  48   22   23 1
  49   22   30 1
  50   22   57 1
  51   23   24 1
  52   23   58 1
  53   23   59 1
  54   24   60 1
  55   24   61 1
  56   25   26 1
  57   25   29 1
  58   26   27 1
  59   26   62 1
  60   26   63 1
  61   27   28 1
  62   27   64 1
  63   27   65 1
  64   28   29 ar
  65   28   30 ar
  66   29   33 ar
  67   30   31 ar
  68   31   32 ar
  69   31   66 1
  70   32   33 ar
  71   32   67 1
  72   33   68 1

#	End of record

