#	Name: ASD08070566
#	Creating user name:	WinNT
#	Creation time:	15. 06. 2019 21:15

#	Modifying user name:	WinNT
#	Modification time:	15. 06. 2019 21:15

#	Program:	/corina/corina34_cracker 3.40 0067  02.08.2006

@<TRIPOS>MOLECULE
ASD08070566
  40   41    0    0    0
SMALL
NO_CHARGES


@<TRIPOS>ATOM
   1 C1            -0.0164     1.3567     0.0095 C.2     
   2 N2             0.0021    -0.0041     0.0020 N.pl3   
   3 C3             1.3225    -0.3981    -0.0127 C.ar    
   4 C4             2.0805     0.7876    -0.0136 C.ar    
   5 N5             1.1985     1.8210     0.0004 N.2     
   6 C6             3.4721     0.7136    -0.0273 C.ar    
   7 C7             4.0921    -0.5322    -0.0399 C.ar    
   8 C8             3.3221    -1.7026    -0.0388 C.ar    
   9 C9             1.9592    -1.6339    -0.0250 C.ar    
  10 C10            5.5662    -0.6208    -0.0549 C.2     
  11 O11            6.2362     0.3937    -0.0563 O.2     
  12 N12            6.1688    -1.8263    -0.0671 N.am    
  13 C13            8.3761    -0.3585     3.3604 C.3     
  14 C14            7.8452    -0.4459     1.9281 C.3     
  15 C15            8.1619    -1.8268     1.3502 C.3     
  16 C16            7.6311    -1.9142    -0.0821 C.3     
  17 C17            8.0556    -3.2466    -0.7029 C.3     
  18 C18            7.6329    -3.2820    -2.1729 C.3     
  19 C19            8.0575    -4.6144    -2.7937 C.3     
  20 H20           -0.9101     1.9630     0.0172 H       
  21 H21           -0.7717    -0.5889     0.0067 H       
  22 H22            4.0649     1.6163    -0.0284 H       
  23 H23            3.8104    -2.6658    -0.0486 H       
  24 H24            1.3740    -2.5416    -0.0243 H       
  25 H25            5.6342    -2.6357    -0.0661 H       
  26 H26            9.4551    -0.5126     3.3580 H       
  27 H27            8.1505     0.6253     3.7721 H       
  28 H28            7.9008    -1.1258     3.9715 H       
  29 H29            6.7662    -0.2917     1.9305 H       
  30 H30            8.3206     0.3214     1.3170 H       
  31 H31            9.2409    -1.9809     1.3479 H       
  32 H32            7.6866    -2.5940     1.9613 H       
  33 H33            8.0384    -1.0926    -0.6713 H       
  34 H34            9.1383    -3.3511    -0.6335 H       
  35 H35            7.5764    -4.0661    -0.1672 H       
  36 H36            6.5502    -3.1774    -2.2423 H       
  37 H37            8.1122    -2.4625    -2.7085 H       
  38 H38            9.1402    -4.7189    -2.7243 H       
  39 H39            7.5783    -5.4338    -2.2580 H       
  40 H40            7.7564    -4.6396    -3.8410 H       
@<TRIPOS>BOND
   1    1    2 1
   2    1    5 2
   3    1   20 1
   4    2    3 1
   5    2   21 1
   6    3    4 ar
   7    3    9 ar
   8    4    5 1
   9    4    6 ar
  10    6    7 ar
  11    6   22 1
  12    7    8 ar
  13    7   10 1
  14    8    9 ar
  15    8   23 1
  16    9   24 1
  17   10   11 2
  18   10   12 am
  19   12   16 1
  20   12   25 1
  21   13   14 1
  22   13   26 1
  23   13   27 1
  24   13   28 1
  25   14   15 1
  26   14   29 1
  27   14   30 1
  28   15   16 1
  29   15   31 1
  30   15   32 1
  31   16   17 1
  32   16   33 1
  33   17   18 1
  34   17   34 1
  35   17   35 1
  36   18   19 1
  37   18   36 1
  38   18   37 1
  39   19   38 1
  40   19   39 1
  41   19   40 1

#	End of record

