#	Name: ASD03090827
#	Creating user name:	WinNT
#	Creation time:	15. 06. 2019 20:29

#	Modifying user name:	WinNT
#	Modification time:	15. 06. 2019 20:29

#	Program:	/corina/corina34_cracker 3.40 0067  02.08.2006

@<TRIPOS>MOLECULE
ASD03090827
  38   41    0    0    0
SMALL
NO_CHARGES


@<TRIPOS>ATOM
   1 C1            -0.0180     1.4769     0.0804 C.2     
   2 C2             0.0022    -0.0037     0.1003 C.ar    
   3 C3             1.2183    -0.6873     0.1073 C.ar    
   4 C4             1.2311    -2.0664     0.1259 C.ar    
   5 C5             0.0398    -2.7724     0.1377 C.ar    
   6 C6            -1.1703    -2.0989     0.1308 C.ar    
   7 C7            -1.1949    -0.7199     0.1180 C.ar    
   8 O8             1.0297     2.1008     0.0700 O.2     
   9 N9            -1.1829     2.1284     0.0681 N.2     
  10 S10            0.1583     4.5173     0.0393 S.3     
  11 C11           -1.2010     3.4600     0.0501 C.2     
  12 N12           -2.2938     4.2634     0.0358 N.pl3   
  13 C13           -2.0723     5.6054     0.0177 C.2     
  14 C14           -0.8062     6.0038     0.0158 C.2     
  15 C15           -0.2962     7.4217    -0.0025 C.3     
  16 O16           -7.4986     2.4247     0.0700 O.3     
  17 C17           -8.1387     3.6831    -0.2124 C.3     
  18 O18           -7.1898     4.6614     0.2519 O.3     
  19 C19           -5.9684     4.0595     0.1554 C.ar    
  20 C20           -6.1578     2.6836     0.0434 C.ar    
  21 C21           -4.6865     4.5819     0.1532 C.ar    
  22 C22           -3.5922     3.7348     0.0389 C.ar    
  23 C23           -3.7840     2.3645    -0.0726 C.ar    
  24 C24           -5.0634     1.8419    -0.0697 C.ar    
  25 F25           -8.3586     3.8252    -1.5867 F       
  26 F26           -9.3419     3.7918     0.4931 F       
  27 Cl27           0.0633    -4.5081     0.1605 Cl      
  28 H28            2.1479    -0.1377     0.0979 H       
  29 H29            2.1720    -2.5966     0.1310 H       
  30 H30           -2.0965    -2.6544     0.1396 H       
  31 H31           -2.1391    -0.1956     0.1172 H       
  32 H32           -2.8879     6.3132     0.0054 H       
  33 H33            0.7938     7.4159     0.0003 H       
  34 H34           -0.6545     7.9252    -0.9005 H       
  35 H35           -0.6589     7.9497     0.8793 H       
  36 H36           -4.5375     5.6481     0.2395 H       
  37 H37           -2.9326     1.7062    -0.1618 H       
  38 H38           -5.2102     0.7754    -0.1564 H       
@<TRIPOS>BOND
   1    1    2 1
   2    1    8 2
   3    1    9 1
   4    2    3 ar
   5    2    7 ar
   6    3    4 ar
   7    3   28 1
   8    4    5 ar
   9    4   29 1
  10    5    6 ar
  11    5   27 1
  12    6    7 ar
  13    6   30 1
  14    7   31 1
  15    9   11 2
  16   10   11 1
  17   10   14 1
  18   11   12 1
  19   12   13 1
  20   12   22 1
  21   13   14 2
  22   13   32 1
  23   14   15 1
  24   15   33 1
  25   15   34 1
  26   15   35 1
  27   16   17 1
  28   16   20 1
  29   17   18 1
  30   17   25 1
  31   17   26 1
  32   18   19 1
  33   19   20 ar
  34   19   21 ar
  35   20   24 ar
  36   21   22 ar
  37   21   36 1
  38   22   23 ar
  39   23   24 ar
  40   23   37 1
  41   24   38 1

#	End of record

