#	Name: ASD03330823
#	Creating user name:	WinNT
#	Creation time:	15. 06. 2019 20:38

#	Modifying user name:	WinNT
#	Modification time:	15. 06. 2019 20:38

#	Program:	/corina/corina34_cracker 3.40 0067  02.08.2006

@<TRIPOS>MOLECULE
ASD03330823
  60   62    0    0    0
SMALL
NO_CHARGES


@<TRIPOS>ATOM
   1 C1            -0.2636     1.1425     0.9554 C.2     
   2 N2            -0.2883    -0.1938     1.1709 N.pl3   
   3 C3             1.0422     1.5299     0.9803 C.2     
   4 N4             1.7943     0.4281     1.1922 N.2     
   5 C5             1.0033    -0.6132     1.3022 C.2     
   6 C6             1.4392    -2.0087     1.5299 C.ar    
   7 C7             1.5443     2.9044     0.8068 C.2     
   8 O8             0.7634     3.8181     0.6207 O.2     
   9 N9             2.8688     3.1491     0.8542 N.am    
  10 C10           -1.4964    -1.0187     1.2585 C.3     
  11 C11           -2.4268    -0.6736     0.0916 C.3     
  12 C12           -3.3320     0.4907     0.4815 C.3     
  13 N13           -2.6368     1.4206     1.3740 N.3     
  14 C14           -1.4661     2.0183     0.7153 C.3     
  15 C15            0.6083    -2.8995     2.2090 C.ar    
  16 C16            1.0208    -4.2021     2.4184 C.ar    
  17 C17            2.2568    -4.6224     1.9553 C.ar    
  18 C18            3.0849    -3.7417     1.2806 C.ar    
  19 C19            2.6805    -2.4398     1.0609 C.ar    
  20 C20            3.3679     4.5156     0.6817 C.3     
  21 C21            4.7095     4.6492     1.3551 C.2     
  22 C22            3.5137     4.8207    -0.8105 C.3     
  23 C23            2.1331     4.8132    -1.4698 C.3     
  24 C24            4.1567     6.1975    -0.9891 C.3     
  25 C25            4.3971     3.7565    -1.4647 C.3     
  26 O26            5.3035     3.6587     1.7252 O.2     
  27 N27            5.2490     5.8693     1.5462 N.am    
  28 C28            6.5845     5.9956     2.1352 C.3     
  29 C29           -3.5508     2.4594     1.8673 C.3     
  30 Cl30           4.6325    -4.2769     0.7042 Cl      
  31 F31            0.2174    -5.0665     3.0760 F       
  32 H32            3.4916     2.4204     1.0026 H       
  33 H33           -1.2225    -2.0725     1.2065 H       
  34 H34           -2.0057    -0.8199     2.2015 H       
  35 H35           -1.8306    -0.3942    -0.7771 H       
  36 H36           -3.0384    -1.5419    -0.1535 H       
  37 H37           -3.6399     1.0218    -0.4192 H       
  38 H38           -4.2163     0.1029     0.9871 H       
  39 H39           -1.2826     3.0103     1.1282 H       
  40 H40           -1.6514     2.0970    -0.3560 H       
  41 H41           -0.3551    -2.5721     2.5709 H       
  42 H42            2.5757    -5.6408     2.1214 H       
  43 H43            3.3277    -1.7540     0.5345 H       
  44 H44            2.6651     5.2183     1.1292 H       
  45 H45            1.5038     5.5713    -1.0038 H       
  46 H46            2.2370     5.0306    -2.5329 H       
  47 H47            1.6750     3.8323    -1.3426 H       
  48 H48            5.1268     6.2127    -0.4923 H       
  49 H49            4.2894     6.4015    -2.0516 H       
  50 H50            3.5120     6.9592    -0.5506 H       
  51 H51            3.9391     2.7757    -1.3375 H       
  52 H52            4.5010     3.9739    -2.5277 H       
  53 H53            5.3807     3.7619    -0.9950 H       
  54 H54            4.7532     6.6639     1.2938 H       
  55 H55            6.8499     7.0501     2.2110 H       
  56 H56            6.5871     5.5480     3.1290 H       
  57 H57            7.3100     5.4828     1.5038 H       
  58 H58           -4.3685     1.9929     2.4168 H       
  59 H59           -3.0089     3.1364     2.5278 H       
  60 H60           -3.9532     3.0199     1.0235 H       
@<TRIPOS>BOND
   1    1    2 1
   2    1    3 2
   3    1   14 1
   4    2   10 1
   5    2    5 1
   6    3    4 1
   7    3    7 1
   8    4    5 2
   9    5    6 1
  10    6   15 ar
  11    6   19 ar
  12    7    8 2
  13    7    9 am
  14    9   20 1
  15    9   32 1
  16   10   11 1
  17   10   33 1
  18   10   34 1
  19   11   12 1
  20   11   35 1
  21   11   36 1
  22   12   13 1
  23   12   37 1
  24   12   38 1
  25   13   14 1
  26   13   29 1
  27   14   39 1
  28   14   40 1
  29   15   16 ar
  30   15   41 1
  31   16   17 ar
  32   16   31 1
  33   17   18 ar
  34   17   42 1
  35   18   19 ar
  36   18   30 1
  37   19   43 1
  38   20   21 1
  39   20   22 1
  40   20   44 1
  41   21   26 2
  42   21   27 am
  43   22   23 1
  44   22   24 1
  45   22   25 1
  46   23   45 1
  47   23   46 1
  48   23   47 1
  49   24   48 1
  50   24   49 1
  51   24   50 1
  52   25   51 1
  53   25   52 1
  54   25   53 1
  55   27   28 1
  56   27   54 1
  57   28   55 1
  58   28   56 1
  59   28   57 1
  60   29   58 1
  61   29   59 1
  62   29   60 1

#	End of record

