#	Name: ASD03092622
#	Creating user name:	WinNT
#	Creation time:	15. 06. 2019 20:32

#	Modifying user name:	WinNT
#	Modification time:	15. 06. 2019 20:32

#	Program:	/corina/corina34_cracker 3.40 0067  02.08.2006

@<TRIPOS>MOLECULE
ASD03092622
  40   43    0    0    0
SMALL
NO_CHARGES


@<TRIPOS>ATOM
   1 N1            -0.0170     1.4009     0.0097 N.2     
   2 N2             0.0021    -0.0041     0.0020 N.pl3   
   3 C3             1.2809    -0.4045    -0.0160 C.2     
   4 C4             2.0747     0.7269    -0.0156 C.2     
   5 C5             1.2088     1.8422     0.0004 C.2     
   6 C6             1.3588    -1.9163    -0.0319 C.3     
   7 C7            -0.0621    -2.3635    -0.4447 C.3     
   8 C8            -0.9126    -1.1580     0.0096 C.3     
   9 C9             3.5485     0.7627    -0.0293 C.2     
  10 O10            4.1818    -0.2754    -0.0425 O.2     
  11 N11            4.1939     1.9458    -0.0271 N.am    
  12 C12            5.6585     1.9814    -0.0407 C.3     
  13 N13            7.4100     7.3267     0.2533 N.pl3   
  14 C14            7.4750     7.4775     1.6117 C.2     
  15 C15            7.1083     6.3368     2.2169 C.2     
  16 C16            6.7817     5.3770     1.1595 C.ar    
  17 C17            6.3478     4.0498     1.1537 C.ar    
  18 C18            6.1263     3.4139    -0.0351 C.ar    
  19 C19            6.3291     4.0768    -1.2380 C.ar    
  20 C20            6.7573     5.3859    -1.2553 C.ar    
  21 C21            6.9891     6.0529    -0.0566 C.ar    
  22 C22            7.8964     8.7375     2.3231 C.3     
  23 H23            1.5100     2.8794     0.0045 H       
  24 H24            2.0927    -2.2530    -0.7641 H       
  25 H25            1.6054    -2.2962     0.9596 H       
  26 H26           -0.1291    -2.5042    -1.5235 H       
  27 H27           -0.3554    -3.2700     0.0847 H       
  28 H28           -1.2985    -1.3265     1.0150 H       
  29 H29           -1.7342    -0.9923    -0.6874 H       
  30 H30            3.6888     2.7739    -0.0165 H       
  31 H31            6.0425     1.4703     0.8421 H       
  32 H32            6.0257     1.4827    -0.9377 H       
  33 H33            7.6244     8.0158    -0.3947 H       
  34 H34            7.0627     6.1601     3.2814 H       
  35 H35            6.1888     3.5275     2.0855 H       
  36 H36            6.1496     3.5607    -2.1696 H       
  37 H37            6.9125     5.8928    -2.1962 H       
  38 H38            7.0215     9.3613     2.5062 H       
  39 H39            8.3638     8.4792     3.2734 H       
  40 H40            8.6087     9.2832     1.7043 H       
@<TRIPOS>BOND
   1    1    2 1
   2    1    5 2
   3    2    3 1
   4    2    8 1
   5    3    4 2
   6    3    6 1
   7    4    5 1
   8    4    9 1
   9    5   23 1
  10    6    7 1
  11    6   24 1
  12    6   25 1
  13    7    8 1
  14    7   26 1
  15    7   27 1
  16    8   28 1
  17    8   29 1
  18    9   10 2
  19    9   11 am
  20   11   12 1
  21   11   30 1
  22   12   18 1
  23   12   31 1
  24   12   32 1
  25   13   14 1
  26   13   21 1
  27   13   33 1
  28   14   15 2
  29   14   22 1
  30   15   16 1
  31   15   34 1
  32   16   17 ar
  33   16   21 ar
  34   17   18 ar
  35   17   35 1
  36   18   19 ar
  37   19   20 ar
  38   19   36 1
  39   20   21 ar
  40   20   37 1
  41   22   38 1
  42   22   39 1
  43   22   40 1

#	End of record

