#	Name: ASD01410867
#	Creating user name:	WinNT
#	Creation time:	15. 06. 2019 19:18

#	Modifying user name:	WinNT
#	Modification time:	15. 06. 2019 19:18

#	Program:	/corina/corina34_cracker 3.40 0067  02.08.2006

@<TRIPOS>MOLECULE
ASD01410867
 131  138    0    0    0
SMALL
NO_CHARGES


@<TRIPOS>ATOM
   1 C1             1.0445     1.0662     1.5763 C.3     
   2 C2             0.3648    -0.1229     2.2940 C.3     
   3 N3             0.3479     0.2671     3.7190 N.am    
   4 C4             0.3422     1.7330     3.7992 C.3     
   5 C5             0.4517     2.2715     2.3560 C.3     
   6 O6             2.4650     1.0095     1.7213 O.3     
   7 C7            -0.9431     2.2070     4.4270 C.2     
   8 O8            -1.7801     1.4020     4.7769 O.2     
   9 N9            -1.1626     3.5255     4.5997 N.am    
  10 C10            1.2414    -1.3737     2.1662 C.3     
  11 C11            0.5970    -2.0663     4.5298 C.3     
  12 C12            0.3748    -0.5961     4.7484 C.2     
  13 O13            0.2172    -0.1803     5.8767 O.2     
  14 C14           -0.5907    -2.8428     5.1019 C.3     
  15 C15           -0.8699    -2.3689     6.5296 C.3     
  16 C16           -2.4618     3.9940     5.0886 C.3     
  17 C17           -3.6459     3.6447     4.2244 C.2     
  18 N18           -3.4907     3.5055     2.8929 N.am    
  19 O19           -4.7385     3.4888     4.7271 O.2     
  20 S20           -4.8104     3.2385     1.9288 S.o2    
  21 C21           -5.7937     4.7556     2.0773 C.3     
  22 C22           -2.6772     4.0253     6.6031 C.3     
  23 C23           -2.4973     5.3330     5.8280 C.3     
  24 C24           -7.1583     4.7835     1.3859 C.3     
  25 C25           -7.0750     4.6882     2.9107 C.3     
  26 O26           -4.2701     3.1205     0.6199 O.2     
  27 O27           -5.4802     2.1477     2.5459 O.2     
  28 C28           -4.0785     3.7001     7.1241 C.3     
  29 C29           -4.0578     3.6621     8.6535 C.3     
  30 C30            3.2062     1.6305     0.7705 C.ar    
  31 C31            4.6191     1.6333     0.8382 C.ar    
  32 C32            2.6066     2.2671    -0.2843 C.ar    
  33 C33            3.3951     2.9013    -1.2541 C.ar    
  34 N34            4.7153     2.9021    -1.1792 N.ar    
  35 C35            5.3559     2.2935    -0.1760 C.ar    
  36 C36            2.7359     3.5843    -2.3869 C.2     
  37 S37            0.9963     3.6906    -2.6442 S.3     
  38 C38            6.7600     2.3019    -0.1071 C.ar    
  39 C39            7.3934     1.6671     0.9380 C.ar    
  40 C40            6.6558     1.0151     1.9303 C.ar    
  41 C41            5.2954     0.9961     1.8886 C.ar    
  42 Cl42           7.6898     3.1069    -1.3323 Cl      
  43 O43            8.7504     1.6743     1.0052 O.3     
  44 C44            9.3487     0.9987     2.1131 C.3     
  45 N45            3.3477     4.2092    -3.3522 N.2     
  46 C46            2.5983     4.7594    -4.2766 C.2     
  47 C47            1.2762     4.6153    -4.1184 C.2     
  48 C48            3.1878     5.5093    -5.4433 C.3     
  49 C49            3.3150     4.5680    -6.6428 C.3     
  50 C50            2.2754     6.6816    -5.8096 C.3     
  51 C51           10.8715     1.1136     2.0187 C.3     
  52 N52           11.2662     2.5212     2.1627 N.3     
  53 C53           12.7230     2.6470     2.3149 C.3     
  54 C54           13.0955     4.1294     2.4015 C.3     
  55 O55           12.3838     4.7321     3.4858 O.3     
  56 C56           10.9621     4.6286     3.3695 C.3     
  57 C57           10.5680     3.1512     3.2927 C.3     
  58 C58           -1.8260    -2.5986     4.2327 C.3     
  59 C59           -1.9748    -3.2293     7.1457 C.3     
  60 N60            0.7321    -2.3781     3.1087 N.am    
  61 O61            0.5177    -3.8984     1.3518 O.3     
  62 C62            0.1250    -5.2334     0.9375 C.3     
  63 C63           -1.3539    -5.4537     1.2618 C.3     
  64 C64            0.3448    -5.3852    -0.5690 C.3     
  65 C65            0.9702    -6.2681     1.6830 C.3     
  66 C66            0.3855    -3.6001     2.6581 C.2     
  67 O67           -0.0463    -4.4326     3.4307 O.2     
  68 H68            0.7616     1.1022     0.5242 H       
  69 H69           -0.6435    -0.2912     1.9157 H       
  70 H70            1.1932     2.0753     4.3881 H       
  71 H71            1.1260     3.1269     2.3140 H       
  72 H72           -0.5320     2.5355     1.9676 H       
  73 H73           -0.4604     4.1643     4.4003 H       
  74 H74            1.1860    -1.7608     1.1488 H       
  75 H75            2.2743    -1.1271     2.4123 H       
  76 H76            1.5057    -2.3708     5.0492 H       
  77 H77           -0.3579    -3.9076     5.1115 H       
  78 H78            0.0374    -2.4603     7.1267 H       
  79 H79           -1.1889    -1.3267     6.5106 H       
  80 H80           -2.6059     3.5617     2.4992 H       
  81 H81           -5.2239     5.6844     2.1039 H       
  82 H82           -1.8523     3.6973     7.2356 H       
  83 H83           -1.5541     5.8653     5.9510 H       
  84 H84           -3.3773     5.9612     5.6897 H       
  85 H85           -7.4864     5.7307     0.9580 H       
  86 H86           -7.4652     3.8902     0.8419 H       
  87 H87           -7.3272     3.7323     3.3698 H       
  88 H88           -7.3484     5.5729     3.4859 H       
  89 H89           -4.7776     4.4663     6.7891 H       
  90 H90           -4.3924     2.7292     6.7408 H       
  91 H91           -3.3587     2.8959     8.9885 H       
  92 H92           -3.7439     4.6330     9.0369 H       
  93 H93           -5.0561     3.4305     9.0248 H       
  94 H94            1.5299     2.2800    -0.3683 H       
  95 H95            7.1715     0.5231     2.7418 H       
  96 H96            4.7377     0.4886     2.6618 H       
  97 H97            9.0071     1.4529     3.0432 H       
  98 H98            9.0619    -0.0528     2.0955 H       
  99 H99            0.5136     5.0002    -4.7791 H       
 100 H100           4.1735     5.8871    -5.1718 H       
 101 H101           2.3292     4.1902    -6.9143 H       
 102 H102           3.7413     5.1103    -7.4867 H       
 103 H103           3.9650     3.7328    -6.3819 H       
 104 H104           2.1848     7.3522    -4.9551 H       
 105 H105           2.7018     7.2240    -6.6535 H       
 106 H106           1.2897     6.3038    -6.0811 H       
 107 H107          11.3303     0.5246     2.8128 H       
 108 H108          11.2047     0.7400     1.0504 H       
 109 H109          13.0390     2.1385     3.2258 H       
 110 H110          13.2190     2.1967     1.4551 H       
 111 H111          14.1678     4.2259     2.5717 H       
 112 H112          12.8281     4.6270     1.4693 H       
 113 H113          10.4915     5.0861     4.2397 H       
 114 H114          10.6327     5.1407     2.4654 H       
 115 H115           9.4910     3.0690     3.1466 H       
 116 H116          10.8495     2.6508     4.2192 H       
 117 H117          -1.6271    -2.9363     3.2156 H       
 118 H118          -2.6721    -3.1518     4.6403 H       
 119 H119          -2.0587    -1.5338     4.2231 H       
 120 H120          -2.8821    -3.1379     6.5486 H       
 121 H121          -1.6559    -4.2714     7.1647 H       
 122 H122          -2.1737    -2.8917     8.1628 H       
 123 H123          -1.9561    -4.7166     0.7306 H       
 124 H124          -1.6487    -6.4559     0.9508 H       
 125 H125          -1.5105    -5.3456     2.3350 H       
 126 H126           1.3985    -5.2283    -0.8001 H       
 127 H127           0.0500    -6.3874    -0.8801 H       
 128 H128          -0.2573    -4.6481    -1.1002 H       
 129 H129           0.8136    -6.1600     2.7563 H       
 130 H130           0.6754    -7.2703     1.3720 H       
 131 H131           2.0238    -6.1112     1.4520 H       
@<TRIPOS>BOND
   1    1    2 1
   2    1    6 1
   3    1    5 1
   4    1   68 1
   5    2    3 1
   6    2   10 1
   7    2   69 1
   8    3    4 1
   9    3   12 am
  10    4    5 1
  11    4    7 1
  12    4   70 1
  13    5   71 1
  14    5   72 1
  15    6   30 1
  16    7    8 2
  17    7    9 am
  18    9   16 1
  19    9   73 1
  20   10   60 1
  21   10   74 1
  22   10   75 1
  23   11   12 1
  24   11   14 1
  25   11   60 1
  26   11   76 1
  27   12   13 2
  28   14   15 1
  29   14   58 1
  30   14   77 1
  31   15   59 1
  32   15   78 1
  33   15   79 1
  34   16   17 1
  35   16   22 1
  36   16   23 1
  37   17   18 am
  38   17   19 2
  39   18   20 am
  40   18   80 1
  41   20   21 1
  42   20   26 2
  43   20   27 2
  44   21   24 1
  45   21   25 1
  46   21   81 1
  47   22   23 1
  48   22   28 1
  49   22   82 1
  50   23   83 1
  51   23   84 1
  52   24   25 1
  53   24   85 1
  54   24   86 1
  55   25   87 1
  56   25   88 1
  57   28   29 1
  58   28   89 1
  59   28   90 1
  60   29   91 1
  61   29   92 1
  62   29   93 1
  63   30   31 ar
  64   30   32 ar
  65   31   35 ar
  66   31   41 ar
  67   32   33 ar
  68   32   94 1
  69   33   34 ar
  70   33   36 1
  71   34   35 ar
  72   35   38 ar
  73   36   45 2
  74   36   37 1
  75   37   47 1
  76   38   39 ar
  77   38   42 1
  78   39   40 ar
  79   39   43 1
  80   40   41 ar
  81   40   95 1
  82   41   96 1
  83   43   44 1
  84   44   51 1
  85   44   97 1
  86   44   98 1
  87   45   46 1
  88   46   47 2
  89   46   48 1
  90   47   99 1
  91   48   49 1
  92   48   50 1
  93   48  100 1
  94   49  101 1
  95   49  102 1
  96   49  103 1
  97   50  104 1
  98   50  105 1
  99   50  106 1
 100   51   52 1
 101   51  107 1
 102   51  108 1
 103   52   53 1
 104   52   57 1
 105   53   54 1
 106   53  109 1
 107   53  110 1
 108   54   55 1
 109   54  111 1
 110   54  112 1
 111   55   56 1
 112   56   57 1
 113   56  113 1
 114   56  114 1
 115   57  115 1
 116   57  116 1
 117   58  117 1
 118   58  118 1
 119   58  119 1
 120   59  120 1
 121   59  121 1
 122   59  122 1
 123   60   66 am
 124   61   62 1
 125   61   66 1
 126   62   63 1
 127   62   64 1
 128   62   65 1
 129   63  123 1
 130   63  124 1
 131   63  125 1
 132   64  126 1
 133   64  127 1
 134   64  128 1
 135   65  129 1
 136   65  130 1
 137   65  131 1
 138   66   67 2

#	End of record

