#	Name: ASD01320070
#	Creating user name:	WinNT
#	Creation time:	15. 06. 2019 19:15

#	Modifying user name:	WinNT
#	Modification time:	15. 06. 2019 19:15

#	Program:	/corina/corina34_cracker 3.40 0067  02.08.2006

@<TRIPOS>MOLECULE
ASD01320070
  38   40    0    0    0
SMALL
NO_CHARGES


@<TRIPOS>ATOM
   1 C1            -0.0173     1.4248     0.0099 C.3     
   2 O2             0.0021    -0.0041     0.0020 O.3     
   3 C3            -1.2012    -0.6379     0.0101 C.ar    
   4 C4            -2.3703     0.0998     0.0252 C.ar    
   5 C5            -3.6062    -0.5522     0.0335 C.ar    
   6 C6            -3.6566    -1.9487     0.0265 C.ar    
   7 C7            -2.4843    -2.6813     0.0114 C.ar    
   8 C8            -1.2544    -2.0290    -0.0026 C.ar    
   9 O9            -0.1033    -2.7519    -0.0175 O.3     
  10 O10           -2.5326    -4.0404     0.0045 O.3     
  11 C11           -3.8280    -4.6436     0.0137 C.3     
  12 C12           -4.8554     0.2322     0.0502 C.2     
  13 C13           -6.0436    -0.4299     0.0579 C.2     
  14 C14           -7.2521     0.3059     0.0739 C.2     
  15 O15           -8.3359    -0.2551     0.0817 O.2     
  16 C16           -7.1510     1.7752     0.0811 C.ar    
  17 C17           -5.8728     2.3594     0.0720 C.ar    
  18 O18           -4.7761     1.5724     0.0625 O.3     
  19 C19           -5.7550     3.7406     0.0786 C.ar    
  20 C20           -6.8916     4.5339     0.0945 C.ar    
  21 C21           -8.1577     3.9583     0.1040 C.ar    
  22 C22           -8.2953     2.5827     0.0963 C.ar    
  23 O23           -9.5298     2.0190     0.1052 O.3     
  24 O24           -6.7678     5.8858     0.1013 O.3     
  25 H25            1.0053     1.8021     0.0021 H       
  26 H26           -0.5445     1.7859    -0.8732 H       
  27 H27           -0.5275     1.7763     0.9067 H       
  28 H28           -2.3284     1.1790     0.0310 H       
  29 H29           -4.6105    -2.4552     0.0333 H       
  30 H30            0.2191    -2.9599    -0.9051 H       
  31 H31           -4.3657    -4.3360     0.9105 H       
  32 H32           -4.3827    -4.3264    -0.8694 H       
  33 H33           -3.7236    -5.7286     0.0068 H       
  34 H34           -6.0644    -1.5097     0.0516 H       
  35 H35           -4.7771     4.1989     0.0717 H       
  36 H36           -9.0354     4.5875     0.1167 H       
  37 H37           -9.8966     1.8615    -0.7756 H       
  38 H38           -6.7406     6.2826    -0.7801 H       
@<TRIPOS>BOND
   1    1    2 1
   2    1   25 1
   3    1   26 1
   4    1   27 1
   5    2    3 1
   6    3    4 ar
   7    3    8 ar
   8    4    5 ar
   9    4   28 1
  10    5    6 ar
  11    5   12 1
  12    6    7 ar
  13    6   29 1
  14    7    8 ar
  15    7   10 1
  16    8    9 1
  17    9   30 1
  18   10   11 1
  19   11   31 1
  20   11   32 1
  21   11   33 1
  22   12   13 2
  23   12   18 1
  24   13   14 1
  25   13   34 1
  26   14   15 2
  27   14   16 1
  28   16   17 ar
  29   16   22 ar
  30   17   18 1
  31   17   19 ar
  32   19   20 ar
  33   19   35 1
  34   20   21 ar
  35   20   24 1
  36   21   22 ar
  37   21   36 1
  38   22   23 1
  39   23   37 1
  40   24   38 1

#	End of record

