#	Name: ASD02030344
#	Creating user name:	WinNT
#	Creation time:	15. 06. 2019 20:15

#	Modifying user name:	WinNT
#	Modification time:	15. 06. 2019 20:15

#	Program:	/corina/corina34_cracker 3.40 0067  02.08.2006

@<TRIPOS>MOLECULE
ASD02030344
  34   35    0    0    0
SMALL
NO_CHARGES


@<TRIPOS>ATOM
   1 N1            -0.1590     1.7556    -0.2886 N.3     
   2 C2            -0.2507     0.3174    -0.0039 C.3     
   3 C3             0.4954    -0.4637    -1.0908 C.3     
   4 N4             1.8645     0.0647    -1.1894 N.am    
   5 C5             2.0407     1.5173    -1.3382 C.3     
   6 C6             1.2337     2.2204    -0.2415 C.3     
   7 C7             2.9293    -0.7603    -1.1441 C.2     
   8 O8             4.0440    -0.3258    -1.3568 O.2     
   9 C9             2.7407    -2.1969    -0.8351 C.ar    
  10 N10            1.5579    -2.6294    -0.4132 N.ar    
  11 C11            1.3490    -3.9003    -0.1275 C.ar    
  12 C12            2.3704    -4.8373    -0.2601 C.ar    
  13 C13            3.6165    -4.4237    -0.6971 C.ar    
  14 C14            3.8031    -3.0816    -0.9949 C.ar    
  15 O15            0.1250    -4.2988     0.3009 O.3     
  16 C16           -0.8815    -3.2911     0.4172 C.3     
  17 C17            3.5219     1.8727    -1.1943 C.3     
  18 H18           -0.5840     1.9762    -1.1768 H       
  19 H19            0.1989     0.1094     0.9671 H       
  20 H20           -1.2979     0.0149     0.0075 H       
  21 H21            0.5290    -1.5202    -0.8247 H       
  22 H22           -0.0146    -0.3399    -2.0461 H       
  23 H23            1.6792     1.8316    -2.3173 H       
  24 H24            1.2632     3.2980    -0.4026 H       
  25 H25            1.6627     1.9859     0.7327 H       
  26 H26            2.1920    -5.8760    -0.0240 H       
  27 H27            4.4250    -5.1311    -0.8082 H       
  28 H28            4.7633    -2.7263    -1.3387 H       
  29 H29           -1.8092    -3.7429     0.7683 H       
  30 H30           -0.5552    -2.5320     1.1281 H       
  31 H31           -1.0478    -2.8297    -0.5562 H       
  32 H32            4.0758     1.4720    -2.0432 H       
  33 H33            3.6343     2.9565    -1.1661 H       
  34 H34            3.9107     1.4429    -0.2712 H       
@<TRIPOS>BOND
   1    1    2 1
   2    1    6 1
   3    1   18 1
   4    2    3 1
   5    2   19 1
   6    2   20 1
   7    3    4 1
   8    3   21 1
   9    3   22 1
  10    4    5 1
  11    4    7 am
  12    5    6 1
  13    5   17 1
  14    5   23 1
  15    6   24 1
  16    6   25 1
  17    7    8 2
  18    7    9 1
  19    9   10 ar
  20    9   14 ar
  21   10   11 ar
  22   11   12 ar
  23   11   15 1
  24   12   13 ar
  25   12   26 1
  26   13   14 ar
  27   13   27 1
  28   14   28 1
  29   15   16 1
  30   16   29 1
  31   16   30 1
  32   16   31 1
  33   17   32 1
  34   17   33 1
  35   17   34 1

#	End of record

