#	Name: ASD04880353
#	Creating user name:	WinNT
#	Creation time:	15. 06. 2019 20:53

#	Modifying user name:	WinNT
#	Modification time:	15. 06. 2019 20:53

#	Program:	/corina/corina34_cracker 3.40 0067  02.08.2006

@<TRIPOS>MOLECULE
ASD04880353
  38   40    0    0    0
SMALL
NO_CHARGES


@<TRIPOS>ATOM
   1 C1            -0.0274     1.3635    -0.2799 C.ar    
   2 C2            -0.0052    -0.0197    -0.2617 C.ar    
   3 C3             1.1981    -0.6931    -0.2214 C.ar    
   4 C4             2.3959     0.0250    -0.1996 C.ar    
   5 C5             2.3658     1.4217    -0.2186 C.ar    
   6 C6             1.1555     2.0815    -0.2584 C.ar    
   7 C7             3.6863    -0.6877    -0.1561 C.2     
   8 N8             3.8280    -1.9680    -0.1356 N.2     
   9 N9             5.1542    -2.3934    -0.0949 N.am    
  10 C10            6.0325    -1.2127    -0.0870 C.3     
  11 C11            5.0468    -0.0285    -0.1352 C.3     
  12 C12            5.5655    -3.6766    -0.0669 C.2     
  13 O13            6.7512    -3.9366    -0.1361 O.2     
  14 C14            4.5751    -4.7676     0.0479 C.ar    
  15 C15            4.9818    -6.0984    -0.0665 C.ar    
  16 C16            3.2305    -4.4721     0.2767 C.ar    
  17 C17            2.3099    -5.4974     0.3829 C.ar    
  18 C18            2.7206    -6.8152     0.2625 C.ar    
  19 C19            4.0535    -7.1128     0.0414 C.ar    
  20 F20            1.0077    -5.2143     0.6048 F       
  21 C21           -1.2987    -0.7926    -0.2853 C.3     
  22 N22           -1.6832    -1.0614    -1.6774 N.3     
  23 H23           -0.9723     1.8854    -0.3155 H       
  24 H24            1.2139    -1.7729    -0.2066 H       
  25 H25            3.2882     1.9832    -0.2015 H       
  26 H26            1.1307     3.1611    -0.2735 H       
  27 H27            6.6284    -1.1840     0.8253 H       
  28 H28            6.6759    -1.2073    -0.9669 H       
  29 H29            5.2048     0.5641    -1.0363 H       
  30 H30            5.1510     0.5921     0.7548 H       
  31 H31            6.0217    -6.3331    -0.2395 H       
  32 H32            2.9103    -3.4450     0.3709 H       
  33 H33            1.9981    -7.6135     0.3465 H       
  34 H34            4.3672    -8.1421    -0.0519 H       
  35 H35           -1.1678    -1.7364     0.2442 H       
  36 H36           -2.0800    -0.2085     0.2010 H       
  37 H37           -2.5482    -1.5791    -1.7201 H       
  38 H38           -1.7479    -0.2047    -2.2065 H       
@<TRIPOS>BOND
   1    1    2 ar
   2    1    6 ar
   3    1   23 1
   4    2    3 ar
   5    2   21 1
   6    3    4 ar
   7    3   24 1
   8    4    5 ar
   9    4    7 1
  10    5    6 ar
  11    5   25 1
  12    6   26 1
  13    7    8 2
  14    7   11 1
  15    8    9 1
  16    9   10 1
  17    9   12 am
  18   10   11 1
  19   10   27 1
  20   10   28 1
  21   11   29 1
  22   11   30 1
  23   12   13 2
  24   12   14 1
  25   14   15 ar
  26   14   16 ar
  27   15   19 ar
  28   15   31 1
  29   16   17 ar
  30   16   32 1
  31   17   18 ar
  32   17   20 1
  33   18   19 ar
  34   18   33 1
  35   19   34 1
  36   21   22 1
  37   21   35 1
  38   21   36 1
  39   22   37 1
  40   22   38 1

#	End of record

