#	Name: ASD01328015
#	Creating user name:	WinNT
#	Creation time:	15. 06. 2019 19:16

#	Modifying user name:	WinNT
#	Modification time:	15. 06. 2019 19:16

#	Program:	/corina/corina34_cracker 3.40 0067  02.08.2006

@<TRIPOS>MOLECULE
ASD01328015
  47   49    0    0    0
SMALL
NO_CHARGES


@<TRIPOS>ATOM
   1 N1            -0.0167     1.3772     0.0096 N.pl3   
   2 C2             0.0021    -0.0041     0.0020 C.2     
   3 C3             1.2915    -0.4320    -0.0126 C.2     
   4 C4             2.1257     0.7121    -0.0144 C.ar    
   5 C5             3.5154     0.8895    -0.0271 C.ar    
   6 C6             4.0390     2.1504    -0.0257 C.ar    
   7 C7             3.2050     3.2628    -0.0118 C.ar    
   8 C8             1.8365     3.1135     0.0008 C.ar    
   9 C9             1.2792     1.8376    -0.0003 C.ar    
  10 C10           -1.1845    -0.8728     0.0091 C.2     
  11 O11           -1.0529    -2.0821     0.0013 O.2     
  12 N12           -2.4176    -0.3291     0.0242 N.am    
  13 C13           -3.5996    -1.1946     0.0313 C.3     
  14 C14           -4.8442    -0.3449     0.0482 C.2     
  15 N15           -6.0588    -0.9290     0.0571 N.am    
  16 O16           -4.7528     0.8644     0.0538 O.2     
  17 C17           -6.1692    -2.3898     0.0503 C.3     
  18 C18           -6.1933    -2.9061     1.4904 C.3     
  19 O19           -7.3760    -2.4406     2.1435 O.3     
  20 C20           -7.2687    -0.1031     0.0735 C.3     
  21 C21           -7.2840     0.7844     1.3304 C.3     
  22 C22           -7.2982     2.2462     0.8377 C.3     
  23 C23           -7.8925     2.1600    -0.5900 C.3     
  24 C24           -7.2741     0.8504    -1.1392 C.3     
  25 Cl25           5.7614     2.3667    -0.0409 Cl      
  26 H26           -0.8129     1.9312     0.0165 H       
  27 H27            1.6212    -1.4605    -0.0212 H       
  28 H28            4.1708     0.0311    -0.0376 H       
  29 H29            3.6349     4.2535    -0.0106 H       
  30 H30            1.1970     3.9837     0.0119 H       
  31 H31           -2.5225     0.6352     0.0304 H       
  32 H32           -3.5981    -1.8190    -0.8621 H       
  33 H33           -3.5805    -1.8286     0.9177 H       
  34 H34           -7.0891    -2.6823    -0.4560 H       
  35 H35           -5.3142    -2.8164    -0.4743 H       
  36 H36           -6.1859    -3.9961     1.4858 H       
  37 H37           -5.3159    -2.5390     2.0227 H       
  38 H38           -7.4578    -2.7304     3.0624 H       
  39 H39           -8.1543    -0.7382     0.0540 H       
  40 H40           -8.1775     0.5806     1.9205 H       
  41 H41           -6.3913     0.6005     1.9282 H       
  42 H42           -7.9325     2.8586     1.4786 H       
  43 H43           -6.2854     2.6478     0.8057 H       
  44 H44           -8.9795     2.0877    -0.5523 H       
  45 H45           -7.5818     3.0153    -1.1901 H       
  46 H46           -6.2574     1.0267    -1.4905 H       
  47 H47           -7.8907     0.4443    -1.9411 H       
@<TRIPOS>BOND
   1    1    2 1
   2    1    9 1
   3    1   26 1
   4    2    3 2
   5    2   10 1
   6    3    4 1
   7    3   27 1
   8    4    5 ar
   9    4    9 ar
  10    5    6 ar
  11    5   28 1
  12    6    7 ar
  13    6   25 1
  14    7    8 ar
  15    7   29 1
  16    8    9 ar
  17    8   30 1
  18   10   11 2
  19   10   12 am
  20   12   13 1
  21   12   31 1
  22   13   14 1
  23   13   32 1
  24   13   33 1
  25   14   15 am
  26   14   16 2
  27   15   17 1
  28   15   20 1
  29   17   18 1
  30   17   34 1
  31   17   35 1
  32   18   19 1
  33   18   36 1
  34   18   37 1
  35   19   38 1
  36   20   21 1
  37   20   24 1
  38   20   39 1
  39   21   22 1
  40   21   40 1
  41   21   41 1
  42   22   23 1
  43   22   42 1
  44   22   43 1
  45   23   24 1
  46   23   44 1
  47   23   45 1
  48   24   46 1
  49   24   47 1

#	End of record

