#	Name: ASD01813505
#	Creating user name:	WinNT
#	Creation time:	15. 06. 2019 19:30

#	Modifying user name:	WinNT
#	Modification time:	15. 06. 2019 19:30

#	Program:	/corina/corina34_cracker 3.40 0067  02.08.2006

@<TRIPOS>MOLECULE
ASD01813505
  55   57    0    0    0
SMALL
NO_CHARGES


@<TRIPOS>ATOM
   1 Cl1            0.0000     0.0000     0.0000 Cl      
   2 H2             0.0000     1.3700     0.0000 H       
   3 C3             5.7136     7.2704    12.9809 C.3     
   4 C4             6.6124     8.4248    12.6197 C.ar    
   5 C5             6.9061     9.3847    13.5693 C.ar    
   6 C6             7.7345    10.4427    13.2268 C.ar    
   7 C7             8.2384    10.4953    11.9364 C.ar    
   8 C8             9.1433    11.6247    11.5161 C.3     
   9 C9            10.5808    11.1907    11.6435 C.ar    
  10 C10           11.2469    10.6902    10.5430 C.ar    
  11 C11           12.5741    10.2921    10.6686 C.ar    
  12 C12           13.3354     9.7502     9.5245 C.2     
  13 O13           12.9316     9.8753     8.3845 O.2     
  14 N14           14.4982     9.1098     9.7890 N.am    
  15 C15           14.9285     8.9112    11.1734 C.3     
  16 O16           14.5207    10.0043    11.9961 O.3     
  17 C17           13.2276    10.3999    11.9065 C.ar    
  18 C18           12.5450    10.9031    12.9998 C.ar    
  19 C19           11.2285    11.3014    12.8632 C.ar    
  20 C20           10.4889    11.8556    14.0535 C.3     
  21 C21           15.3276     8.6153     8.6874 C.3     
  22 H22           16.2170     8.1314     9.0911 H       
  23 C23           14.5286     7.6057     7.8608 C.3     
  24 C24           15.3948     7.0892     6.7102 C.3     
  25 C25           15.8117     8.2614     5.8197 C.3     
  26 C26           16.6107     9.2709     6.6463 C.3     
  27 C27           15.7445     9.7874     7.7968 C.3     
  28 H28           14.8551    10.2713     7.3931 H       
  29 O29           16.4908    10.7303     8.5688 O.3     
  30 C30            7.9007     9.4985    11.0404 C.ar    
  31 N31            7.1139     8.5043    11.4025 N.ar    
  32 H32            6.3155     6.4491    13.3698 H       
  33 H33            5.0000     7.5893    13.7406 H       
  34 H34            5.1751     6.9376    12.0935 H       
  35 H35            6.4953     9.3121    14.5655 H       
  36 H36            7.9810    11.2078    13.9482 H       
  37 H37            8.9346    11.8910    10.4799 H       
  38 H38            8.9667    12.4892    12.1560 H       
  39 H39           10.7417    10.6080     9.5920 H       
  40 H40           14.4883     7.9906    11.5567 H       
  41 H41           16.0149     8.8269    11.2022 H       
  42 H42           13.0406    10.9888    13.9555 H       
  43 H43            9.9234    11.0572    14.5339 H       
  44 H44           11.2034    12.2726    14.7633 H       
  45 H45            9.8051    12.6380    13.7244 H       
  46 H46           14.2316     6.7707     8.4953 H       
  47 H47           13.6392     8.0896     7.4571 H       
  48 H48           16.2842     6.6054     7.1139 H       
  49 H49           14.8255     6.3700     6.1214 H       
  50 H50           16.4288     7.8934     5.0000 H       
  51 H51           14.9223     8.7452     5.4160 H       
  52 H52           17.5001     8.7871     7.0499 H       
  53 H53           16.9077    10.1060     6.0118 H       
  54 H54           16.7884    11.5016     8.0672 H       
  55 H55            8.2888     9.5324    10.0331 H       
@<TRIPOS>BOND
   1    1    2 1
   2    3    4 1
   3    3   32 1
   4    3   33 1
   5    3   34 1
   6    4   31 ar
   7    4    5 ar
   8    5    6 ar
   9    5   35 1
  10    6    7 ar
  11    6   36 1
  12    7    8 1
  13    7   30 ar
  14    8    9 1
  15    8   37 1
  16    8   38 1
  17    9   19 ar
  18    9   10 ar
  19   10   11 ar
  20   10   39 1
  21   11   17 ar
  22   11   12 1
  23   12   13 2
  24   12   14 am
  25   14   15 1
  26   14   21 1
  27   15   16 1
  28   15   40 1
  29   15   41 1
  30   16   17 1
  31   17   18 ar
  32   18   19 ar
  33   18   42 1
  34   19   20 1
  35   20   43 1
  36   20   44 1
  37   20   45 1
  38   21   22 1
  39   21   27 1
  40   21   23 1
  41   23   24 1
  42   23   46 1
  43   23   47 1
  44   24   25 1
  45   24   48 1
  46   24   49 1
  47   25   26 1
  48   25   50 1
  49   25   51 1
  50   26   27 1
  51   26   52 1
  52   26   53 1
  53   27   28 1
  54   27   29 1
  55   29   54 1
  56   30   31 ar
  57   30   55 1

#	End of record

