#	Name: ASD01880303
#	Creating user name:	WinNT
#	Creation time:	15. 06. 2019 19:40

#	Modifying user name:	WinNT
#	Modification time:	15. 06. 2019 19:40

#	Program:	/corina/corina34_cracker 3.40 0067  02.08.2006

@<TRIPOS>MOLECULE
ASD01880303
  43   45    0    0    0
SMALL
NO_CHARGES


@<TRIPOS>ATOM
   1 C1            -0.0163     1.3493     0.0095 C.2     
   2 C2             0.0021    -0.0041     0.0020 C.2     
   3 N3            -1.1557    -0.7131     0.0093 N.am    
   4 C4            -2.3471    -0.0857     0.0245 C.2     
   5 C5            -2.4025     1.3185     0.0330 C.2     
   6 C6            -1.2403     2.0325     0.0307 C.2     
   7 O7            -3.3795    -0.7370     0.0305 O.2     
   8 C8            -1.1083    -2.1773    -0.0000 C.3     
   9 C9            -1.0779    -2.6879     1.4175 C.ar    
  10 C10            1.2781     2.1210     0.0012 C.3     
  11 C11           -2.2606    -2.9608     2.0791 C.ar    
  12 C12           -2.2334    -3.4291     3.3792 C.ar    
  13 C13           -1.0221    -3.6248     4.0185 C.ar    
  14 C14            0.1613    -3.3515     3.3558 C.ar    
  15 C15            0.1329    -2.8885     2.0538 C.ar    
  16 Cl16          -0.9871    -4.2125     5.6516 Cl      
  17 C17            1.3898     2.9009    -1.2834 C.ar    
  18 O18            1.3020     3.0228     1.1095 O.3     
  19 C19            2.0815     2.3705    -2.3548 C.ar    
  20 C20            2.1836     3.0888    -3.5375 C.ar    
  21 C21            1.5903     4.3384    -3.6406 C.ar    
  22 C22            0.8994     4.8647    -2.5660 C.ar    
  23 C23            0.7947     4.1446    -1.3905 C.ar    
  24 O24            2.8641     2.5693    -4.5929 O.3     
  25 C25            2.9282     3.3645    -5.7784 C.3     
  26 H26            0.9478    -0.5255    -0.0102 H       
  27 H27           -3.3553     1.8270     0.0449 H       
  28 H28           -1.2628     3.1122     0.0372 H       
  29 H29           -1.9911    -2.5662    -0.5074 H       
  30 H30           -0.2122    -2.5085    -0.5248 H       
  31 H31            2.1152     1.4273     0.0791 H       
  32 H32           -3.2061    -2.8077     1.5801 H       
  33 H33           -3.1574    -3.6420     3.8961 H       
  34 H34            1.1071    -3.5040     3.8543 H       
  35 H35            1.0566    -2.6752     1.5364 H       
  36 H36            0.5838     3.6702     1.1054 H       
  37 H37            2.5429     1.3975    -2.2719 H       
  38 H38            1.6687     4.8997    -4.5600 H       
  39 H39            0.4373     5.8375    -2.6458 H       
  40 H40            0.2543     4.5577    -0.5517 H       
  41 H41            1.9190     3.5528    -6.1447 H       
  42 H42            3.4161     4.3130    -5.5537 H       
  43 H43            3.4986     2.8344    -6.5411 H       
@<TRIPOS>BOND
   1    1    2 2
   2    1   10 1
   3    1    6 1
   4    2    3 1
   5    2   26 1
   6    3    4 am
   7    3    8 1
   8    4    5 1
   9    4    7 2
  10    5    6 2
  11    5   27 1
  12    6   28 1
  13    8    9 1
  14    8   29 1
  15    8   30 1
  16    9   11 ar
  17    9   15 ar
  18   10   17 1
  19   10   18 1
  20   10   31 1
  21   11   12 ar
  22   11   32 1
  23   12   13 ar
  24   12   33 1
  25   13   14 ar
  26   13   16 1
  27   14   15 ar
  28   14   34 1
  29   15   35 1
  30   17   19 ar
  31   17   23 ar
  32   18   36 1
  33   19   20 ar
  34   19   37 1
  35   20   21 ar
  36   20   24 1
  37   21   22 ar
  38   21   38 1
  39   22   23 ar
  40   22   39 1
  41   23   40 1
  42   24   25 1
  43   25   41 1
  44   25   42 1
  45   25   43 1

#	End of record

