#	Name: ASD01917545
#	Creating user name:	WinNT
#	Creation time:	15. 06. 2019 20:09

#	Modifying user name:	WinNT
#	Modification time:	15. 06. 2019 20:09

#	Program:	/corina/corina34_cracker 3.40 0067  02.08.2006

@<TRIPOS>MOLECULE
ASD01917545
  46   49    0    0    0
SMALL
NO_CHARGES


@<TRIPOS>ATOM
   1 C1            -0.2392     1.7981     1.0009 C.ar    
   2 C2            -0.3750     0.4264     1.2188 C.ar    
   3 C3            -1.6147    -0.0765     1.5945 C.ar    
   4 C4            -2.6698     0.8084     1.7380 C.ar    
   5 C5            -2.4616     2.1595     1.5049 C.ar    
   6 N6            -1.2779     2.6112     1.1553 N.ar    
   7 C7             1.0737     2.3518     0.6007 C.2     
   8 O8             2.0582     1.6392     0.5971 O.2     
   9 N9             1.1776     3.6463     0.2402 N.am    
  10 C10            2.4952     4.2668     0.0067 C.3     
  11 C11            2.4623     5.6304     0.6555 C.2     
  12 N12            1.3389     6.2155     1.1315 N.pl3   
  13 C13            0.0026     5.6145     1.1016 C.3     
  14 C14           -0.0198     4.4817     0.0618 C.3     
  15 C15            3.4926     6.4709     0.8670 C.2     
  16 C16            2.9863     7.6187     1.4902 C.2     
  17 N17            1.6946     7.4651     1.6461 N.2     
  18 C18            3.7894     8.8230     1.9094 C.3     
  19 O19            5.1634     8.6199     1.5731 O.3     
  20 C20            6.0293     9.6195     1.8859 C.ar    
  21 C21            7.3779     9.4887     1.5877 C.ar    
  22 C22            8.2575    10.5056     1.9062 C.ar    
  23 C23            7.7956    11.6536     2.5218 C.ar    
  24 C24            6.4499    11.7874     2.8215 C.ar    
  25 C25            5.5651    10.7741     2.4986 C.ar    
  26 C26            3.5943     3.4129     0.6420 C.3     
  27 F27            0.6827    -0.4002     1.0663 F       
  28 F28            6.0005    12.9100     3.4241 F       
  29 H29           -1.7521    -1.1332     1.7701 H       
  30 H30           -3.6462     0.4497     2.0285 H       
  31 H31           -3.2835     2.8513     1.6160 H       
  32 H32            2.6739     4.3685    -1.0637 H       
  33 H33           -0.2380     5.2130     2.0860 H       
  34 H34           -0.7313     6.3724     0.8275 H       
  35 H35           -0.0266     4.9083    -0.9413 H       
  36 H36           -0.9126     3.8732     0.2055 H       
  37 H37            4.5247     6.2920     0.6038 H       
  38 H38            3.4156     9.7068     1.3925 H       
  39 H39            3.6961     8.9652     2.9861 H       
  40 H40            7.7402     8.5921     1.1070 H       
  41 H41            9.3073    10.4031     1.6742 H       
  42 H42            8.4849    12.4472     2.7699 H       
  43 H43            4.5157    10.8780     2.7316 H       
  44 H44            3.7084     2.4881     0.0764 H       
  45 H45            4.5347     3.9640     0.6309 H       
  46 H46            3.3228     3.1782     1.6712 H       
@<TRIPOS>BOND
   1    1    2 ar
   2    1    7 1
   3    1    6 ar
   4    2    3 ar
   5    2   27 1
   6    3    4 ar
   7    3   29 1
   8    4    5 ar
   9    4   30 1
  10    5    6 ar
  11    5   31 1
  12    7    8 2
  13    7    9 am
  14    9   10 1
  15    9   14 1
  16   10   11 1
  17   10   26 1
  18   10   32 1
  19   11   12 1
  20   11   15 2
  21   12   13 1
  22   12   17 1
  23   13   14 1
  24   13   33 1
  25   13   34 1
  26   14   35 1
  27   14   36 1
  28   15   16 1
  29   15   37 1
  30   16   17 2
  31   16   18 1
  32   18   19 1
  33   18   38 1
  34   18   39 1
  35   19   20 1
  36   20   21 ar
  37   20   25 ar
  38   21   22 ar
  39   21   40 1
  40   22   23 ar
  41   22   41 1
  42   23   24 ar
  43   23   42 1
  44   24   25 ar
  45   24   28 1
  46   25   43 1
  47   26   44 1
  48   26   45 1
  49   26   46 1

#	End of record

