#	Name: ASD04840093
#	Creating user name:	WinNT
#	Creation time:	15. 06. 2019 20:52

#	Modifying user name:	WinNT
#	Modification time:	15. 06. 2019 20:52

#	Program:	/corina/corina34_cracker 3.40 0067  02.08.2006

@<TRIPOS>MOLECULE
ASD04840093
  53   56    0    0    0
SMALL
NO_CHARGES


@<TRIPOS>ATOM
   1 C1             0.2235     1.6537     0.7969 C.ar    
   2 C2             0.4012     0.2783     1.1033 C.ar    
   3 N3             2.6513     0.7759     1.6106 N.ar    
   4 C4             2.4361     2.0369     1.3157 C.ar    
   5 N5             1.2552     2.4755     0.9177 N.ar    
   6 C6            -0.5399    -0.8206     1.0584 C.2     
   7 C7            -0.0324    -2.0008     1.4158 C.2     
   8 S8             1.6626    -1.8599     1.8422 S.3     
   9 C9             1.6715    -0.1323     1.5199 C.ar    
  10 N10           -1.0054     2.1263     0.3737 N.pl3   
  11 C11           -1.2074     3.5631     0.1706 C.3     
  12 P12           -1.2827     3.9196    -1.6156 P.3     
  13 O13           -2.7139     3.4624    -2.1942 O.3     
  14 O14           -1.0863     5.4993    -1.8564 O.3     
  15 O15           -0.2088     3.1771    -2.3126 O.2     
  16 C16           -0.7991    -3.2639     1.4483 C.ar    
  17 C17           -0.2933    -4.4101     0.8232 C.ar    
  18 C18           -1.0179    -5.5894     0.8582 C.ar    
  19 C19           -2.2374    -5.6352     1.5085 C.ar    
  20 C20           -2.7426    -4.5036     2.1282 C.ar    
  21 C21           -2.0275    -3.3212     2.1067 C.ar    
  22 C22           -3.0210    -6.9220     1.5429 C.3     
  23 F23           -3.9351    -4.5579     2.7607 F       
  24 O24            0.9050    -4.3652     0.1837 O.3     
  25 C25            1.3578    -5.5730    -0.4313 C.3     
  26 C26           -2.5185     3.9924     0.8321 C.3     
  27 C27           -2.6596     5.4901     0.7421 C.ar    
  28 C28           -2.1733     7.6736     1.5955 C.ar    
  29 C29           -2.0438     6.2998     1.6780 C.ar    
  30 C30           -3.4004     6.0543    -0.2796 C.ar    
  31 C31           -3.5299     7.4281    -0.3621 C.ar    
  32 C32           -2.9191     8.2376     0.5774 C.ar    
  33 H33            3.2517     2.7395     1.4017 H       
  34 H34           -1.5702    -0.6948     0.7599 H       
  35 H35           -1.7337     1.5065     0.2114 H       
  36 H36           -0.3785     4.1130     0.6162 H       
  37 H37           -2.9323     2.5371    -2.0174 H       
  38 H38           -0.2775     5.8589    -1.4670 H       
  39 H39           -0.6302    -6.4749     0.3766 H       
  40 H40           -2.4211    -2.4420     2.5950 H       
  41 H41           -2.7350    -7.4981     2.4229 H       
  42 H42           -4.0867    -6.6974     1.5861 H       
  43 H43           -2.8079    -7.5012     0.6444 H       
  44 H44            0.6359    -5.8904    -1.1838 H       
  45 H45            2.3240    -5.3994    -0.9051 H       
  46 H46            1.4589    -6.3505     0.3259 H       
  47 H47           -3.3558     3.5172     0.3211 H       
  48 H48           -2.5130     3.6902     1.8793 H       
  49 H49           -1.6924     8.3062     2.3269 H       
  50 H50           -1.4617     5.8591     2.4739 H       
  51 H51           -3.8775     5.4219    -1.0135 H       
  52 H52           -4.1080     7.8690    -1.1607 H       
  53 H53           -3.0203     9.3109     0.5129 H       
@<TRIPOS>BOND
   1    1    2 ar
   2    1    5 ar
   3    1   10 1
   4    2    9 ar
   5    2    6 1
   6    3    4 ar
   7    3    9 ar
   8    4    5 ar
   9    4   33 1
  10    6    7 2
  11    6   34 1
  12    7    8 1
  13    7   16 1
  14    8    9 1
  15   10   11 1
  16   10   35 1
  17   11   12 1
  18   11   26 1
  19   11   36 1
  20   12   13 1
  21   12   14 1
  22   12   15 2
  23   13   37 1
  24   14   38 1
  25   16   17 ar
  26   16   21 ar
  27   17   18 ar
  28   17   24 1
  29   18   19 ar
  30   18   39 1
  31   19   20 ar
  32   19   22 1
  33   20   21 ar
  34   20   23 1
  35   21   40 1
  36   22   41 1
  37   22   42 1
  38   22   43 1
  39   24   25 1
  40   25   44 1
  41   25   45 1
  42   25   46 1
  43   26   27 1
  44   26   47 1
  45   26   48 1
  46   27   30 ar
  47   27   29 ar
  48   28   29 ar
  49   28   32 ar
  50   28   49 1
  51   29   50 1
  52   30   31 ar
  53   30   51 1
  54   31   32 ar
  55   31   52 1
  56   32   53 1

#	End of record

