#	Name: ASD03240396
#	Creating user name:	WinNT
#	Creation time:	15. 06. 2019 20:34

#	Modifying user name:	WinNT
#	Modification time:	15. 06. 2019 20:34

#	Program:	/corina/corina34_cracker 3.40 0067  02.08.2006

@<TRIPOS>MOLECULE
ASD03240396
  51   52    0    0    0
SMALL
NO_CHARGES


@<TRIPOS>ATOM
   1 C1             0.1750     0.3978    -1.8935 C.ar    
   2 C2             0.1668    -0.9495    -1.5381 C.ar    
   3 N3            -1.0624    -1.6174    -1.4104 N.pl3   
   4 C4            -2.2281    -0.8354    -1.3535 C.ar    
   5 C5            -2.1638     0.5085    -1.7159 C.ar    
   6 O6            -0.9899     1.0560    -2.1258 O.3     
   7 C7            -3.4271    -1.3905    -0.9415 C.ar    
   8 C8            -4.5669    -0.6055    -0.8879 C.ar    
   9 C9            -4.5054     0.7290    -1.2459 C.ar    
  10 C10           -3.3085     1.2868    -1.6585 C.ar    
  11 Cl11          -6.0733    -1.2969    -0.3718 Cl      
  12 C12            1.3836     1.0643    -2.0148 C.ar    
  13 C13            2.5709     0.3922    -1.7859 C.ar    
  14 C14            2.5597    -0.9448    -1.4361 C.ar    
  15 C15            1.3571    -1.6185    -1.3117 C.ar    
  16 C16           -1.1266    -3.0793    -1.3395 C.3     
  17 C17           -1.0349    -3.5235     0.1217 C.3     
  18 C18           -1.1019    -5.0502     0.1958 C.3     
  19 C19           -1.0101    -5.4945     1.6570 C.3     
  20 N20           -1.0744    -6.9603     1.7281 N.3     
  21 C21            0.1066    -7.5701     1.1027 C.3     
  22 C22           -0.1676    -9.0505     0.8302 C.3     
  23 C23           -1.2279    -7.4138     3.1169 C.3     
  24 C24           -2.6739    -7.1970     3.5674 C.3     
  25 H25           -3.4737    -2.4327    -0.6622 H       
  26 H26           -5.3958     1.3387    -1.2027 H       
  27 H27           -3.2665     2.3295    -1.9366 H       
  28 H28            1.3988     2.1089    -2.2886 H       
  29 H29            3.5112     0.9148    -1.8813 H       
  30 H30            3.4900    -1.4643    -1.2600 H       
  31 H31            1.3475    -2.6633    -1.0384 H       
  32 H32           -2.0695    -3.4227    -1.7651 H       
  33 H33           -0.2968    -3.5071    -1.9021 H       
  34 H34           -0.0920    -3.1801     0.5474 H       
  35 H35           -1.8646    -3.0957     0.6843 H       
  36 H36           -2.0448    -5.3936    -0.2298 H       
  37 H37           -0.2721    -5.4781    -0.3668 H       
  38 H38           -0.0672    -5.1511     2.0826 H       
  39 H39           -1.8399    -5.0666     2.2196 H       
  40 H40            0.3234    -7.0618     0.1631 H       
  41 H41            0.9616    -7.4761     1.7722 H       
  42 H42           -0.2510    -9.5847     1.7767 H       
  43 H43           -1.0990    -9.1509     0.2730 H       
  44 H44            0.6519    -9.4704     0.2469 H       
  45 H45           -0.9819    -8.4737     3.1824 H       
  46 H46           -0.5574    -6.8448     3.7611 H       
  47 H47           -3.3437    -7.7719     2.9279 H       
  48 H48           -2.7859    -7.5266     4.6004 H       
  49 H49           -2.9221    -6.1381     3.4950 H       
  50 Cl50           8.5112     7.3295     9.6004 Cl      
  51 H51            8.5112     8.6995     9.6004 H       
@<TRIPOS>BOND
   1    1    2 ar
   2    1   12 ar
   3    1    6 1
   4    2    3 1
   5    2   15 ar
   6    3    4 1
   7    3   16 1
   8    4    5 ar
   9    4    7 ar
  10    5    6 1
  11    5   10 ar
  12    7    8 ar
  13    7   25 1
  14    8    9 ar
  15    8   11 1
  16    9   10 ar
  17    9   26 1
  18   10   27 1
  19   12   13 ar
  20   12   28 1
  21   13   14 ar
  22   13   29 1
  23   14   15 ar
  24   14   30 1
  25   15   31 1
  26   16   17 1
  27   16   32 1
  28   16   33 1
  29   17   18 1
  30   17   34 1
  31   17   35 1
  32   18   19 1
  33   18   36 1
  34   18   37 1
  35   19   20 1
  36   19   38 1
  37   19   39 1
  38   20   21 1
  39   20   23 1
  40   21   22 1
  41   21   40 1
  42   21   41 1
  43   22   42 1
  44   22   43 1
  45   22   44 1
  46   23   24 1
  47   23   45 1
  48   23   46 1
  49   24   47 1
  50   24   48 1
  51   24   49 1
  52   50   51 1

#	End of record

