#	Name: ASD01870277
#	Creating user name:	WinNT
#	Creation time:	15. 06. 2019 19:38

#	Modifying user name:	WinNT
#	Modification time:	15. 06. 2019 19:38

#	Program:	/corina/corina34_cracker 3.40 0067  02.08.2006

@<TRIPOS>MOLECULE
ASD01870277
  34   36    0    0    0
SMALL
NO_CHARGES


@<TRIPOS>ATOM
   1 C1             0.2070     1.5125     1.6713 C.ar    
   2 N2             0.2388     0.2080     1.8682 N.ar    
   3 C3             1.3499    -0.4924     1.7390 C.ar    
   4 C4             2.5354     0.1190     1.3890 C.ar    
   5 C5             2.5475     1.5005     1.1706 C.ar    
   6 C6             1.3472     2.2032     1.3186 C.ar    
   7 C7             3.7980     2.2006     0.7932 C.2     
   8 N8             4.9500     1.5617     0.6403 N.2     
   9 C9             3.8422     3.5283     0.5764 C.2     
  10 S10            5.4970     3.9624     0.1539 S.3     
  11 C11            5.9798     2.2759     0.3087 C.2     
  12 N12            7.2630     1.7868     0.1046 N.am    
  13 C13            7.5353     0.3560     0.2625 C.3     
  14 C14            8.2582     2.6283    -0.2388 C.2     
  15 C15            9.6425     2.1261    -0.3568 C.ar    
  16 O16            8.0167     3.8006    -0.4515 O.2     
  17 C17            9.8812     0.8313    -0.8219 C.ar    
  18 C18           10.7178     2.9463    -0.0090 C.ar    
  19 C19           12.0076     2.4718    -0.1213 C.ar    
  20 C20           12.2378     1.1845    -0.5779 C.ar    
  21 C21           11.1755     0.3682    -0.9298 C.ar    
  22 Cl22          13.8645     0.5945    -0.7170 Cl      
  23 H23           -0.7255     2.0457     1.7836 H       
  24 H24            1.3306    -1.5586     1.9101 H       
  25 H25            3.4410    -0.4603     1.2854 H       
  26 H26            1.3139     3.2709     1.1590 H       
  27 H27            3.0076     4.2099     0.6484 H       
  28 H28            7.4190    -0.1442    -0.6989 H       
  29 H29            8.5546     0.2178     0.6231 H       
  30 H30            6.8349    -0.0700     0.9809 H       
  31 H31            9.0538     0.1937    -1.0963 H       
  32 H32           10.5396     3.9503     0.3468 H       
  33 H33           12.8401     3.1054     0.1471 H       
  34 H34           11.3614    -0.6332    -1.2891 H       
@<TRIPOS>BOND
   1    1    2 ar
   2    1    6 ar
   3    1   23 1
   4    2    3 ar
   5    3    4 ar
   6    3   24 1
   7    4    5 ar
   8    4   25 1
   9    5    6 ar
  10    5    7 1
  11    6   26 1
  12    7    9 2
  13    7    8 1
  14    8   11 2
  15    9   10 1
  16    9   27 1
  17   10   11 1
  18   11   12 1
  19   12   13 1
  20   12   14 am
  21   13   28 1
  22   13   29 1
  23   13   30 1
  24   14   15 1
  25   14   16 2
  26   15   18 ar
  27   15   17 ar
  28   17   21 ar
  29   17   31 1
  30   18   19 ar
  31   18   32 1
  32   19   20 ar
  33   19   33 1
  34   20   21 ar
  35   20   22 1
  36   21   34 1

#	End of record

