#	Name: ASD09116421
#	Creating user name:	WinNT
#	Creation time:	15. 06. 2019 21:21

#	Modifying user name:	WinNT
#	Modification time:	15. 06. 2019 21:21

#	Program:	/corina/corina34_cracker 3.40 0067  02.08.2006

@<TRIPOS>MOLECULE
ASD09116421
  72   78    0    0    0
SMALL
NO_CHARGES


@<TRIPOS>ATOM
   1 N1            -0.1436     1.7907    -0.2529 N.2     
   2 N2            -0.1899     0.4432    -0.6449 N.pl3   
   3 C3             1.1195     2.1441    -0.2455 C.2     
   4 N4             1.8676     1.0961    -0.6101 N.2     
   5 C5             1.0920     0.0617    -0.8546 C.2     
   6 N6             1.5117    -1.1925    -1.2551 N.pl3   
   7 C7            -1.3317    -0.3470    -0.7893 C.ar    
   8 N8             1.6046     3.4084     0.0881 N.pl3   
   9 C9             2.9859     3.6317     0.1621 C.ar    
  10 C10            3.5198     4.8892    -0.1045 C.ar    
  11 C11            3.8564     2.6026     0.5094 C.ar    
  12 N12            5.1544     2.8506     0.5696 N.ar    
  13 C13            5.6273     4.0588     0.3043 C.ar    
  14 N14            4.8287     5.0628    -0.0243 N.ar    
  15 N15           -1.3156    -1.3918    -1.6033 N.ar    
  16 N16           -2.3422    -2.1452    -1.7797 N.ar    
  17 C17           -3.4855    -1.9177    -1.1533 C.ar    
  18 C18           -3.5897    -0.8494    -0.2579 C.ar    
  19 C19           -2.4898    -0.0391    -0.0708 C.ar    
  20 C20           -4.6857    -2.7513    -1.3956 C.ar    
  21 C21           -5.8999    -2.1213    -1.6729 C.ar    
  22 C22           -5.9467    -0.6212    -1.7735 C.3     
  23 C23           -5.9183     0.0306    -0.3937 C.3     
  24 C24           -4.8694    -0.6315     0.4958 C.3     
  25 C25           -4.6175    -4.1393    -1.3461 C.ar    
  26 C26           -5.7599    -4.8878    -1.5538 C.ar    
  27 C27           -6.9653    -4.2590    -1.8077 C.ar    
  28 C28           -7.0357    -2.8778    -1.8663 C.ar    
  29 N29            6.9944     4.2799     0.3780 N.3     
  30 C30            7.3204     5.6739     0.0510 C.3     
  31 C31            7.7258     3.3463    -0.4880 C.3     
  32 C32            9.2308     3.5209    -0.2721 C.3     
  33 C33            9.6244     4.9642    -0.5986 C.3     
  34 C34            8.8133     5.9179     0.2830 C.3     
  35 N35           11.0575     5.1533    -0.3374 N.3     
  36 C36           11.8725     4.2916    -1.2133 C.3     
  37 C37           12.8346     5.2121    -1.9933 C.3     
  38 C38           12.9035     6.4806    -1.1027 C.3     
  39 C39           11.4553     6.5599    -0.5586 C.3     
  40 H40            2.4570    -1.3706    -1.3802 H       
  41 H41            0.8611    -1.8948    -1.4112 H       
  42 H42            0.9858     4.1332     0.2689 H       
  43 H43            2.8740     5.7121    -0.3734 H       
  44 H44            3.4773     1.6151     0.7273 H       
  45 H45           -2.5248     0.8069     0.5997 H       
  46 H46           -5.0878    -0.2755    -2.3489 H       
  47 H47           -6.8612    -0.3267    -2.2883 H       
  48 H48           -5.6810     1.0889    -0.5016 H       
  49 H49           -6.8989    -0.0710     0.0713 H       
  50 H50           -5.2488    -1.5924     0.8431 H       
  51 H51           -4.6740     0.0081     1.3565 H       
  52 H52           -3.6763    -4.6296    -1.1459 H       
  53 H53           -5.7115    -5.9661    -1.5182 H       
  54 H54           -7.8568    -4.8490    -1.9611 H       
  55 H55           -7.9804    -2.3931    -2.0638 H       
  56 H56            7.0788     5.8679    -0.9940 H       
  57 H57            6.7401     6.3416     0.6878 H       
  58 H58            7.4400     2.3235    -0.2426 H       
  59 H59            7.4823     3.5512    -1.5305 H       
  60 H60            9.4772     3.3027     0.7670 H       
  61 H61            9.7738     2.8388    -0.9264 H       
  62 H62            9.4141     5.1705    -1.6480 H       
  63 H63            9.0580     6.9483     0.0253 H       
  64 H64            9.0531     5.7374     1.3308 H       
  65 H65           12.4427     3.5843    -0.6111 H       
  66 H66           11.2278     3.7544    -1.9089 H       
  67 H67           13.8184     4.7520    -2.0853 H       
  68 H68           12.4269     5.4523    -2.9752 H       
  69 H69           13.6190     6.3494    -0.2910 H       
  70 H70           13.1463     7.3618    -1.6965 H       
  71 H71           10.7995     7.0288    -1.2922 H       
  72 H72           11.4325     7.1129     0.3804 H       
@<TRIPOS>BOND
   1    1    2 1
   2    1    3 2
   3    2    7 1
   4    2    5 1
   5    3    4 1
   6    3    8 1
   7    4    5 2
   8    5    6 1
   9    6   40 1
  10    6   41 1
  11    7   15 ar
  12    7   19 ar
  13    8    9 1
  14    8   42 1
  15    9   10 ar
  16    9   11 ar
  17   10   14 ar
  18   10   43 1
  19   11   12 ar
  20   11   44 1
  21   12   13 ar
  22   13   14 ar
  23   13   29 1
  24   15   16 ar
  25   16   17 ar
  26   17   18 ar
  27   17   20 1
  28   18   19 ar
  29   18   24 1
  30   19   45 1
  31   20   21 ar
  32   20   25 ar
  33   21   22 1
  34   21   28 ar
  35   22   23 1
  36   22   46 1
  37   22   47 1
  38   23   24 1
  39   23   48 1
  40   23   49 1
  41   24   50 1
  42   24   51 1
  43   25   26 ar
  44   25   52 1
  45   26   27 ar
  46   26   53 1
  47   27   28 ar
  48   27   54 1
  49   28   55 1
  50   29   30 1
  51   29   31 1
  52   30   34 1
  53   30   56 1
  54   30   57 1
  55   31   32 1
  56   31   58 1
  57   31   59 1
  58   32   33 1
  59   32   60 1
  60   32   61 1
  61   33   34 1
  62   33   35 1
  63   33   62 1
  64   34   63 1
  65   34   64 1
  66   35   36 1
  67   35   39 1
  68   36   37 1
  69   36   65 1
  70   36   66 1
  71   37   38 1
  72   37   67 1
  73   37   68 1
  74   38   39 1
  75   38   69 1
  76   38   70 1
  77   39   71 1
  78   39   72 1

#	End of record

