#	Name: ASD08070247
#	Creating user name:	WinNT
#	Creation time:	15. 06. 2019 21:14

#	Modifying user name:	WinNT
#	Modification time:	15. 06. 2019 21:14

#	Program:	/corina/corina34_cracker 3.40 0067  02.08.2006

@<TRIPOS>MOLECULE
ASD08070247
  32   34    0    0    0
SMALL
NO_CHARGES


@<TRIPOS>ATOM
   1 N1            -0.0649     1.3600    -0.1937 N.am    
   2 C2            -0.0293     0.0128    -0.2102 C.2     
   3 O3             1.0190    -0.5651    -0.4231 O.2     
   4 N4            -1.1558    -0.6938     0.0094 N.am    
   5 C5            -1.1402    -2.0891    -0.1040 C.ar    
   6 C6            -0.0174    -2.8061     0.2875 C.ar    
   7 C7            -0.0047    -4.1826     0.1752 C.ar    
   8 C8             1.0667     2.2664    -0.4129 C.3     
   9 C9            -2.2497    -2.7588    -0.6026 C.ar    
  10 C10           -2.2319    -4.1354    -0.7130 C.ar    
  11 C11           -1.1095    -4.8472    -0.3275 C.ar    
  12 Cl12          -1.0900    -6.5773    -0.4685 Cl      
  13 C13            0.5512     3.6789    -0.3004 C.ar    
  14 C14           -0.8023     3.6399    -0.0310 C.ar    
  15 C15           -1.2438     2.1999     0.0405 C.3     
  16 C16            1.1968     4.8977    -0.4206 C.ar    
  17 C17            0.4889     6.0745    -0.2709 C.ar    
  18 C18           -0.8665     6.0354    -0.0011 C.ar    
  19 C19           -1.5114     4.8196     0.1181 C.ar    
  20 H20           -1.9774    -0.2355     0.2459 H       
  21 H21            0.8454    -2.2879     0.6792 H       
  22 H22            0.8684    -4.7408     0.4795 H       
  23 H23            1.8322     2.0912     0.3430 H       
  24 H24            1.4836     2.1034    -1.4068 H       
  25 H25           -3.1259    -2.2037    -0.9037 H       
  26 H26           -3.0946    -4.6567    -1.1008 H       
  27 H27           -1.9998     2.0071    -0.7208 H       
  28 H28           -1.6509     1.9869     1.0289 H       
  29 H29            2.2556     4.9285    -0.6313 H       
  30 H30            0.9941     7.0245    -0.3642 H       
  31 H31           -1.4208     6.9549     0.1161 H       
  32 H32           -2.5702     4.7893     0.3289 H       
@<TRIPOS>BOND
   1    1    2 am
   2    1    8 1
   3    1   15 1
   4    2    3 2
   5    2    4 am
   6    4    5 1
   7    4   20 1
   8    5    6 ar
   9    5    9 ar
  10    6    7 ar
  11    6   21 1
  12    7   11 ar
  13    7   22 1
  14    8   13 1
  15    8   23 1
  16    8   24 1
  17    9   10 ar
  18    9   25 1
  19   10   11 ar
  20   10   26 1
  21   11   12 1
  22   13   14 ar
  23   13   16 ar
  24   14   15 1
  25   14   19 ar
  26   15   27 1
  27   15   28 1
  28   16   17 ar
  29   16   29 1
  30   17   18 ar
  31   17   30 1
  32   18   19 ar
  33   18   31 1
  34   19   32 1

#	End of record

