#	Name: ASD04590207
#	Creating user name:	WinNT
#	Creation time:	15. 06. 2019 20:50

#	Modifying user name:	WinNT
#	Modification time:	15. 06. 2019 20:50

#	Program:	/corina/corina34_cracker 3.40 0067  02.08.2006

@<TRIPOS>MOLECULE
ASD04590207
  41   43    0    0    0
SMALL
NO_CHARGES


@<TRIPOS>ATOM
   1 N1            -0.0153     1.2802     0.0091 N.pl3   
   2 N2             0.0021    -0.0041     0.0020 N.2     
   3 C3             1.2455    -0.4440    -0.0122 C.2     
   4 C4             2.0903     0.6961    -0.0142 C.2     
   5 C5             1.2523     1.7667    -0.0004 C.2     
   6 C6             1.6765    -1.8547    -0.0235 C.2     
   7 N7             0.7571    -2.8402    -0.0200 N.am    
   8 N8             3.4930     0.7146    -0.0275 N.am    
   9 O9             2.8611    -2.1284    -0.0359 O.2     
  10 C10            4.1514     1.8906    -0.0274 C.2     
  11 C11            5.6264     1.9101    -0.0414 C.ar    
  12 O12            3.5296     2.9356    -0.0159 O.2     
  13 C13            1.1851    -4.2412    -0.0312 C.3     
  14 C14           -0.0454    -5.1504    -0.0245 C.3     
  15 C15            6.3414     1.9129     1.1612 C.ar    
  16 C16            7.7233     1.9313     1.1389 C.ar    
  17 C17            8.3992     1.9473    -0.0677 C.ar    
  18 C18            7.7004     1.9452    -1.2612 C.ar    
  19 C19            6.3184     1.9201    -1.2574 C.ar    
  20 F20            5.6831     1.8982     2.3408 F       
  21 F21            5.6376     1.9176    -2.4243 F       
  22 O22           -0.7417    -5.0635    -1.2868 O.3     
  23 C23            0.3805    -6.6309     0.0901 C.3     
  24 C24           -0.6240    -7.3816    -0.8125 C.3     
  25 C25           -1.5380    -6.2658    -1.3658 C.3     
  26 H26           -0.8184     1.8242     0.0160 H       
  27 H27            1.5405     2.8076     0.0024 H       
  28 H28           -0.1879    -2.6218    -0.0102 H       
  29 H29            3.9890    -0.1189    -0.0367 H       
  30 H30            1.7744    -4.4340    -0.9277 H       
  31 H31            1.7909    -4.4431     0.8522 H       
  32 H32           -0.7101    -4.8821     0.7966 H       
  33 H33            8.2768     1.9335     2.0662 H       
  34 H34            9.4791     1.9620    -0.0779 H       
  35 H35            8.2361     1.9585    -2.1989 H       
  36 H36            1.3980    -6.7651    -0.2769 H       
  37 H37            0.2971    -6.9736     1.1215 H       
  38 H38           -0.1031    -7.8869    -1.6258 H       
  39 H39           -1.2040    -8.0953    -0.2274 H       
  40 H40           -2.4332    -6.1691    -0.7514 H       
  41 H41           -1.8080    -6.4748    -2.4009 H       
@<TRIPOS>BOND
   1    1    2 1
   2    1    5 1
   3    1   26 1
   4    2    3 2
   5    3    4 1
   6    3    6 1
   7    4    5 2
   8    4    8 1
   9    5   27 1
  10    6    7 am
  11    6    9 2
  12    7   13 1
  13    7   28 1
  14    8   10 am
  15    8   29 1
  16   10   11 1
  17   10   12 2
  18   11   15 ar
  19   11   19 ar
  20   13   14 1
  21   13   30 1
  22   13   31 1
  23   14   23 1
  24   14   22 1
  25   14   32 1
  26   15   16 ar
  27   15   20 1
  28   16   17 ar
  29   16   33 1
  30   17   18 ar
  31   17   34 1
  32   18   19 ar
  33   18   35 1
  34   19   21 1
  35   22   25 1
  36   23   24 1
  37   23   36 1
  38   23   37 1
  39   24   25 1
  40   24   38 1
  41   24   39 1
  42   25   40 1
  43   25   41 1

#	End of record

