#	Name: ASD01911105
#	Creating user name:	WinNT
#	Creation time:	15. 06. 2019 19:57

#	Modifying user name:	WinNT
#	Modification time:	15. 06. 2019 19:57

#	Program:	/corina/corina34_cracker 3.40 0067  02.08.2006

@<TRIPOS>MOLECULE
ASD01911105
  45   48    0    0    0
SMALL
NO_CHARGES


@<TRIPOS>ATOM
   1 C1            -0.1997     1.1540     1.1201 C.2     
   2 O2            -0.3549    -0.0460     1.0044 O.2     
   3 N3             1.0402     1.6805     1.0756 N.am    
   4 C4             2.2202     0.8101     0.9821 C.3     
   5 C5             3.1875     1.1675     2.1150 C.3     
   6 C6             3.5039     2.6637     2.0572 C.3     
   7 C7             2.2158     3.4671     2.2504 C.3     
   8 C8             1.2372     3.1360     1.1135 C.3     
   9 O9             5.2922     0.4110     0.9108 O.3     
  10 N10            6.2238    -0.3429     1.0984 N.2     
  11 C11            6.1000    -0.9311     2.2564 C.2     
  12 N12            4.9633    -0.4720     2.8194 N.2     
  13 C13            4.4610     0.3775     1.9569 C.2     
  14 O14            6.9552    -1.8359     2.7942 O.3     
  15 C15            8.1200    -2.0811     2.1383 C.ar    
  16 C16            8.4854    -1.2965     1.0539 C.ar    
  17 C17            9.6698    -1.5478     0.3890 C.ar    
  18 C18           10.4907    -2.5806     0.8029 C.ar    
  19 C19           10.1287    -3.3643     1.8829 C.ar    
  20 C20            8.9485    -3.1129     2.5554 C.ar    
  21 C21           -1.3710     2.0364     1.3034 C.ar    
  22 C22           -1.4426     3.2557     0.6272 C.ar    
  23 C23           -2.5382     4.0746     0.8020 C.ar    
  24 C24           -3.5663     3.6896     1.6466 C.ar    
  25 C25           -3.5007     2.4813     2.3205 C.ar    
  26 C26           -2.4130     1.6512     2.1490 C.ar    
  27 Cl27          -4.9422     4.7261     1.8620 Cl      
  28 H28            1.9142    -0.2317     1.0778 H       
  29 H29            2.7111     0.9621     0.0208 H       
  30 H30            2.7280     0.9296     3.0743 H       
  31 H31            4.2113     2.9160     2.8472 H       
  32 H32            3.9407     2.9053     1.0882 H       
  33 H33            1.7655     3.2076     3.2085 H       
  34 H34            2.4454     4.5325     2.2325 H       
  35 H35            1.6496     3.4738     0.1627 H       
  36 H36            0.2825     3.6294     1.2959 H       
  37 H37            7.8442    -0.4901     0.7298 H       
  38 H38            9.9547    -0.9373    -0.4552 H       
  39 H39           11.4162    -2.7757     0.2814 H       
  40 H40           10.7712    -4.1708     2.2038 H       
  41 H41            8.6684    -3.7222     3.4020 H       
  42 H42           -0.6412     3.5572    -0.0311 H       
  43 H43           -2.5947     5.0181     0.2794 H       
  44 H44           -4.3050     2.1868     2.9784 H       
  45 H45           -2.3652     0.7071     2.6713 H       
@<TRIPOS>BOND
   1    1    2 2
   2    1    3 am
   3    1   21 1
   4    3    4 1
   5    3    8 1
   6    4    5 1
   7    4   28 1
   8    4   29 1
   9    5    6 1
  10    5   13 1
  11    5   30 1
  12    6    7 1
  13    6   31 1
  14    6   32 1
  15    7    8 1
  16    7   33 1
  17    7   34 1
  18    8   35 1
  19    8   36 1
  20    9   10 1
  21    9   13 1
  22   10   11 2
  23   11   12 1
  24   11   14 1
  25   12   13 2
  26   14   15 1
  27   15   16 ar
  28   15   20 ar
  29   16   17 ar
  30   16   37 1
  31   17   18 ar
  32   17   38 1
  33   18   19 ar
  34   18   39 1
  35   19   20 ar
  36   19   40 1
  37   20   41 1
  38   21   22 ar
  39   21   26 ar
  40   22   23 ar
  41   22   42 1
  42   23   24 ar
  43   23   43 1
  44   24   25 ar
  45   24   27 1
  46   25   26 ar
  47   25   44 1
  48   26   45 1

#	End of record

