#	Name: ASD05490142
#	Creating user name:	WinNT
#	Creation time:	15. 06. 2019 21:01

#	Modifying user name:	WinNT
#	Modification time:	15. 06. 2019 21:01

#	Program:	/corina/corina34_cracker 3.40 0067  02.08.2006

@<TRIPOS>MOLECULE
ASD05490142
  68   73    0    0    0
SMALL
NO_CHARGES


@<TRIPOS>ATOM
   1 O1            -2.2665     1.8171     0.0253 O.2     
   2 N2            -0.0178     1.4608     0.0101 N.am    
   3 O3             4.5863     2.8160    -0.0274 O.3     
   4 N4             2.8511     4.3367    -0.0019 N.ar    
   5 C5             1.5540     4.6376     0.0121 C.ar    
   6 C6             3.2565     3.0770    -0.0133 C.ar    
   7 N7             2.4054     2.0644    -0.0102 N.ar    
   8 C8             1.0946     2.2826     0.0039 C.ar    
   9 C9             0.6266     3.5971     0.0154 C.ar    
  10 N10            1.1342     5.9598     0.0237 N.pl3   
  11 C11           -1.1223     2.2312     0.0189 C.2     
  12 N12           -0.7663     3.5310     0.0284 N.am    
  13 C13            5.4681     3.9405    -0.0289 C.3     
  14 C14            6.9178     3.4517    -0.0454 C.3     
  15 C15            7.8616     4.6514    -0.1729 C.3     
  16 C16            9.3102     4.1602    -0.1094 C.3     
  17 C17            0.0021    -0.0041     0.0020 C.3     
  18 C18            0.0225    -0.5140     1.4200 C.ar    
  19 C19           -1.1675    -0.7634     2.0797 C.ar    
  20 C20           -1.1549    -1.2309     3.3781 C.ar    
  21 C21            0.0599    -1.4516     4.0246 C.ar    
  22 C22            1.2557    -1.1985     3.3551 C.ar    
  23 C23            1.2311    -0.7362     2.0550 C.ar    
  24 O24            9.5192     3.4543     1.1154 O.3     
  25 C25            8.6972     2.2954     1.2684 C.3     
  26 C26            7.2240     2.7117     1.2603 C.3     
  27 C27            0.0800    -1.9536     5.4204 C.2     
  28 C28           -1.0360    -2.3100     6.0880 C.2     
  29 N29            1.1968    -2.0965     6.1193 N.2     
  30 C30            1.0837    -2.5427     7.3222 C.2     
  31 S31           -0.5565    -2.8427     7.6974 S.3     
  32 C32            2.2365    -2.7711     8.2657 C.3     
  33 N33            2.4841    -1.5484     9.0413 N.3     
  34 C34            3.4398    -1.8011    10.1353 C.3     
  35 C35            4.6157    -0.8189     9.9511 C.3     
  36 C36            3.9924     0.3163     9.0970 C.3     
  37 C37            3.0267    -0.4757     8.1806 C.3     
  38 H38            1.7881     6.6762     0.0216 H       
  39 H39            0.1868     6.1678     0.0339 H       
  40 H40           -1.3727     4.2880     0.0359 H       
  41 H41            5.2796     4.5488    -0.9135 H       
  42 H42            5.2964     4.5381     0.8664 H       
  43 H43            7.0663     2.7796    -0.8906 H       
  44 H44            7.6881     5.1518    -1.1256 H       
  45 H45            7.6772     5.3484     0.6446 H       
  46 H46            9.5056     3.4949    -0.9504 H       
  47 H47            9.9860     5.0141    -0.1567 H       
  48 H48           -0.8878    -0.3767    -0.5053 H       
  49 H49            0.8920    -0.3525    -0.5222 H       
  50 H50           -2.1083    -0.5917     1.5778 H       
  51 H51           -2.0845    -1.4250     3.8923 H       
  52 H52            2.1999    -1.3674     3.8515 H       
  53 H53            2.1572    -0.5398     1.5352 H       
  54 H54            8.8846     1.6056     0.4454 H       
  55 H55            8.9314     1.8059     2.2137 H       
  56 H56            7.0267     3.3695     2.1067 H       
  57 H57            6.5945     1.8248     1.3325 H       
  58 H58           -2.0449    -2.2750     5.7042 H       
  59 H59            1.9940    -3.5890     8.9443 H       
  60 H60            3.1289    -3.0257     7.6940 H       
  61 H61            2.9574    -1.6258    11.0969 H       
  62 H62            3.8021    -2.8277    10.0814 H       
  63 H63            4.9525    -0.4359    10.9144 H       
  64 H64            5.4368    -1.2968     9.4167 H       
  65 H65            3.4460     1.0213     9.7235 H       
  66 H66            4.7556     0.8278     8.5105 H       
  67 H67            3.5690    -0.9036     7.3374 H       
  68 H68            2.2230     0.1704     7.8275 H       
@<TRIPOS>BOND
   1    1   11 2
   2    2   17 1
   3    2    8 1
   4    2   11 am
   5    3   13 1
   6    3    6 1
   7    4    5 ar
   8    4    6 ar
   9    5   10 1
  10    5    9 ar
  11    6    7 ar
  12    7    8 ar
  13    8    9 ar
  14    9   12 1
  15   10   38 1
  16   10   39 1
  17   11   12 am
  18   12   40 1
  19   13   14 1
  20   13   41 1
  21   13   42 1
  22   14   15 1
  23   14   26 1
  24   14   43 1
  25   15   16 1
  26   15   44 1
  27   15   45 1
  28   16   24 1
  29   16   46 1
  30   16   47 1
  31   17   18 1
  32   17   48 1
  33   17   49 1
  34   18   19 ar
  35   18   23 ar
  36   19   20 ar
  37   19   50 1
  38   20   21 ar
  39   20   51 1
  40   21   22 ar
  41   21   27 1
  42   22   23 ar
  43   22   52 1
  44   23   53 1
  45   24   25 1
  46   25   26 1
  47   25   54 1
  48   25   55 1
  49   26   56 1
  50   26   57 1
  51   27   28 2
  52   27   29 1
  53   28   31 1
  54   28   58 1
  55   29   30 2
  56   30   31 1
  57   30   32 1
  58   32   33 1
  59   32   59 1
  60   32   60 1
  61   33   34 1
  62   33   37 1
  63   34   35 1
  64   34   61 1
  65   34   62 1
  66   35   36 1
  67   35   63 1
  68   35   64 1
  69   36   37 1
  70   36   65 1
  71   36   66 1
  72   37   67 1
  73   37   68 1

#	End of record

