#	Name: ASD00842109
#	Creating user name:	WinNT
#	Creation time:	15. 06. 2019 18:43

#	Modifying user name:	WinNT
#	Modification time:	15. 06. 2019 18:43

#	Program:	/corina/corina34_cracker 3.40 0067  02.08.2006

@<TRIPOS>MOLECULE
ASD00842109
  85   90    0    0    0
SMALL
NO_CHARGES


@<TRIPOS>ATOM
   1 F1             6.0915    -1.6068    -1.9902 F       
   2 C2             0.9887     1.5632    -0.3549 C.ar    
   3 C3             1.3022     0.2368    -0.6129 C.ar    
   4 C4             1.2429    -0.6992     0.4097 C.ar    
   5 C5             0.8720    -0.3084     1.6814 C.ar    
   6 C6             0.5594     1.0145     1.9360 C.ar    
   7 C7             0.6182     1.9490     0.9190 C.ar    
   8 C8             1.5824    -2.1411     0.1328 C.3     
   9 C9             1.3248    -2.9914     1.3585 C.2     
  10 C10            0.7762    -2.6608    -1.0592 C.3     
  11 C11           -0.6931    -2.4420    -0.8056 C.2     
  12 N12           -1.6050    -2.9099    -1.6808 N.am    
  13 O13           -1.0550    -1.8448     0.1860 O.2     
  14 C14           -3.0325    -2.6080    -1.5077 C.3     
  15 C15           -3.8188    -3.9227    -1.5132 C.3     
  16 C16           -3.4915    -4.7028    -2.7885 C.3     
  17 C17           -1.9975    -5.0334    -2.8170 C.3     
  18 C18           -1.1899    -3.7266    -2.8295 C.3     
  19 N19           -4.2690    -5.9490    -2.8130 N.3     
  20 C20           -4.0708    -6.6686    -4.0789 C.3     
  21 C21           -4.8322    -7.9955    -4.0330 C.3     
  22 N22           -6.2586    -7.7309    -3.7987 N.3     
  23 C23           -6.4569    -7.0112    -2.5329 C.3     
  24 C24           -5.6955    -5.6843    -2.5788 C.3     
  25 H25           -6.6637    -7.2229    -4.5708 H       
  26 O26            0.2571    -3.1550     1.9102 O.2     
  27 N27            2.5008    -3.5315     1.7198 N.am    
  28 C28            3.0646    -2.2973    -0.1184 C.ar    
  29 C29            3.5422    -3.1442     0.8739 C.ar    
  30 C30            3.9107    -1.7829    -1.0748 C.ar    
  31 C31            5.2574    -2.1096    -1.0539 C.ar    
  32 C32            5.7453    -2.9534    -0.0691 C.ar    
  33 C33            4.8966    -3.4693     0.8901 C.ar    
  34 Cl34           7.4319    -3.3640    -0.0411 Cl      
  35 C35            2.4471    -6.1864     2.4431 C.ar    
  36 C36            3.5204    -6.9213     1.9744 C.ar    
  37 C37            1.1819    -6.7436     2.4657 C.ar    
  38 C38            0.9872    -8.0364     2.0197 C.ar    
  39 C39            2.0625    -8.7759     1.5489 C.ar    
  40 C40            3.3309    -8.2144     1.5269 C.ar    
  41 O41            1.8736   -10.0481     1.1100 O.3     
  42 H42            4.5077    -6.4838     1.9578 H       
  43 C43            3.0260   -10.7498     0.6392 C.3     
  44 O44            1.6665    -0.1453    -1.8652 O.3     
  45 C45            2.1364     0.2642    -4.2001 C.3     
  46 C46            1.5971     0.8461    -2.8919 C.3     
  47 S47            2.6933    -4.5396     3.0195 S.o2    
  48 O48            4.0594    -4.4476     3.3997 O.2     
  49 O49            1.6191    -4.2602     3.9067 O.2     
  50 H50            1.0384     2.2944    -1.1481 H       
  51 H51            0.8257    -1.0366     2.4777 H       
  52 H52            0.2689     1.3179     2.9309 H       
  53 H53            0.3736     2.9816     1.1203 H       
  54 H54            1.0732    -2.1243    -1.9604 H       
  55 H55            0.9675    -3.7258    -1.1907 H       
  56 H56           -3.1849    -2.0950    -0.5581 H       
  57 H57           -3.3739    -1.9746    -2.3265 H       
  58 H58           -3.5411    -4.5163    -0.6422 H       
  59 H59           -4.8869    -3.7079    -1.4822 H       
  60 H60           -3.7464    -4.0988    -3.6592 H       
  61 H61           -1.7370    -5.6166    -1.9338 H       
  62 H62           -1.7694    -5.6092    -3.7140 H       
  63 H63           -1.3822    -3.1870    -3.7568 H       
  64 H64           -0.1267    -3.9533    -2.7499 H       
  65 H65           -4.4452    -6.0628    -4.9041 H       
  66 H66           -3.0082    -6.8639    -4.2236 H       
  67 H67           -4.7102    -8.5178    -4.9819 H       
  68 H68           -4.4393    -8.6124    -3.2248 H       
  69 H69           -7.5194    -6.8159    -2.3882 H       
  70 H70           -6.0825    -7.6170    -1.7077 H       
  71 H71           -5.8174    -5.1621    -1.6299 H       
  72 H72           -6.0884    -5.0674    -3.3870 H       
  73 H73            3.5255    -1.1259    -1.8405 H       
  74 H74            5.2838    -4.1265     1.6548 H       
  75 H75            0.3452    -6.1676     2.8326 H       
  76 H76           -0.0012    -8.4713     2.0379 H       
  77 H77            4.1696    -8.7881     1.1611 H       
  78 H78            3.4606   -10.2110    -0.2028 H       
  79 H79            3.7600   -10.8228     1.4417 H       
  80 H80            2.7364   -11.7508     0.3195 H       
  81 H81            2.1652     1.0447    -4.9604 H       
  82 H82            3.1425    -0.1226    -4.0382 H       
  83 H83            1.4857    -0.5442    -4.5337 H       
  84 H84            0.5606     1.1533    -3.0310 H       
  85 H85            2.1965     1.7098    -2.6041 H       
@<TRIPOS>BOND
   1    1   31 1
   2    2    3 ar
   3    2    7 ar
   4    2   50 1
   5    3    4 ar
   6    3   44 1
   7    4    5 ar
   8    4    8 1
   9    5    6 ar
  10    5   51 1
  11    6    7 ar
  12    6   52 1
  13    7   53 1
  14    8    9 1
  15    8   10 1
  16    8   28 1
  17    9   26 2
  18    9   27 am
  19   10   11 1
  20   10   54 1
  21   10   55 1
  22   11   12 am
  23   11   13 2
  24   12   14 1
  25   12   18 1
  26   14   15 1
  27   14   56 1
  28   14   57 1
  29   15   16 1
  30   15   58 1
  31   15   59 1
  32   16   17 1
  33   16   19 1
  34   16   60 1
  35   17   18 1
  36   17   61 1
  37   17   62 1
  38   18   63 1
  39   18   64 1
  40   19   20 1
  41   19   24 1
  42   20   21 1
  43   20   65 1
  44   20   66 1
  45   21   22 1
  46   21   67 1
  47   21   68 1
  48   22   23 1
  49   22   25 1
  50   23   24 1
  51   23   69 1
  52   23   70 1
  53   24   71 1
  54   24   72 1
  55   27   47 am
  56   27   29 1
  57   28   29 ar
  58   28   30 ar
  59   29   33 ar
  60   30   31 ar
  61   30   73 1
  62   31   32 ar
  63   32   33 ar
  64   32   34 1
  65   33   74 1
  66   35   36 ar
  67   35   37 ar
  68   35   47 1
  69   36   42 1
  70   36   40 ar
  71   37   38 ar
  72   37   75 1
  73   38   39 ar
  74   38   76 1
  75   39   40 ar
  76   39   41 1
  77   40   77 1
  78   41   43 1
  79   43   78 1
  80   43   79 1
  81   43   80 1
  82   44   46 1
  83   45   46 1
  84   45   81 1
  85   45   82 1
  86   45   83 1
  87   46   84 1
  88   46   85 1
  89   47   48 2
  90   47   49 2

#	End of record

