#	Name: ASD01911854
#	Creating user name:	WinNT
#	Creation time:	15. 06. 2019 19:58

#	Modifying user name:	WinNT
#	Modification time:	15. 06. 2019 19:58

#	Program:	/corina/corina34_cracker 3.40 0067  02.08.2006

@<TRIPOS>MOLECULE
ASD01911854
  39   41    0    0    0
SMALL
NO_CHARGES


@<TRIPOS>ATOM
   1 C1            -1.5608     1.3997     0.7224 C.ar    
   2 C2            -1.3476     0.0293     0.8376 C.ar    
   3 C3            -1.2731    -0.5369     2.1019 C.ar    
   4 N4            -1.4023     0.2086     3.1815 N.ar    
   5 C5            -1.6050     1.5093     3.1071 C.ar    
   6 C6            -1.6904     2.1455     1.8825 C.ar    
   7 O7            -1.2148    -0.7433    -0.2725 O.3     
   8 C8            -1.0117    -2.0760    -0.1016 C.ar    
   9 C9            -2.0751    -2.9034     0.2329 C.ar    
  10 C10           -1.8701    -4.2586     0.4074 C.ar    
  11 C11           -0.6066    -4.7948     0.2492 C.ar    
  12 C12            0.4613    -3.9719    -0.0855 C.ar    
  13 C13            0.2562    -2.6110    -0.2668 C.ar    
  14 N14            1.7402    -4.5146    -0.2451 N.am    
  15 C15            2.8267    -3.7860     0.0793 C.2     
  16 C16            4.1798    -4.3188    -0.1856 C.ar    
  17 O17            2.6939    -2.6908     0.5897 O.2     
  18 C18            5.3070    -3.5668     0.1492 C.ar    
  19 C19            6.5676    -4.0696    -0.1000 C.ar    
  20 C20            6.7163    -5.3161    -0.6809 C.ar    
  21 C21            5.6024    -6.0677    -1.0161 C.ar    
  22 C22            4.3358    -5.5786    -0.7663 C.ar    
  23 Cl23           5.7994    -7.6306    -1.7458 Cl      
  24 C24           -3.0266    -5.1534     0.7715 C.3     
  25 F25           -4.1934    -4.3885     0.8755 F       
  26 F26           -3.1936    -6.1263    -0.2198 F       
  27 F27           -2.7666    -5.7762     1.9970 F       
  28 H28           -1.6192     1.8708    -0.2477 H       
  29 H29           -1.1080    -1.5994     2.2028 H       
  30 H30           -1.7060     2.0855     4.0149 H       
  31 H31           -1.8563     3.2114     1.8310 H       
  32 H32           -3.0639    -2.4872     0.3573 H       
  33 H33           -0.4491    -5.8545     0.3862 H       
  34 H34            1.0847    -1.9689    -0.5271 H       
  35 H35            1.8454    -5.4153    -0.5893 H       
  36 H36            5.1927    -2.5931     0.6021 H       
  37 H37            7.4402    -3.4883     0.1588 H       
  38 H38            7.7052    -5.7047    -0.8741 H       
  39 H39            3.4676    -6.1653    -1.0280 H       
@<TRIPOS>BOND
   1    1    2 ar
   2    1    6 ar
   3    1   28 1
   4    2    3 ar
   5    2    7 1
   6    3    4 ar
   7    3   29 1
   8    4    5 ar
   9    5    6 ar
  10    5   30 1
  11    6   31 1
  12    7    8 1
  13    8    9 ar
  14    8   13 ar
  15    9   10 ar
  16    9   32 1
  17   10   11 ar
  18   10   24 1
  19   11   12 ar
  20   11   33 1
  21   12   13 ar
  22   12   14 1
  23   13   34 1
  24   14   15 am
  25   14   35 1
  26   15   16 1
  27   15   17 2
  28   16   18 ar
  29   16   22 ar
  30   18   19 ar
  31   18   36 1
  32   19   20 ar
  33   19   37 1
  34   20   21 ar
  35   20   38 1
  36   21   22 ar
  37   21   23 1
  38   22   39 1
  39   24   25 1
  40   24   26 1
  41   24   27 1

#	End of record

