#	Name: ASD01913261
#	Creating user name:	WinNT
#	Creation time:	15. 06. 2019 20:01

#	Modifying user name:	WinNT
#	Modification time:	15. 06. 2019 20:01

#	Program:	/corina/corina34_cracker 3.40 0067  02.08.2006

@<TRIPOS>MOLECULE
ASD01913261
  46   49    0    0    0
SMALL
NO_CHARGES


@<TRIPOS>ATOM
   1 N1             1.0524     0.8324     2.1843 N.ar    
   2 C2             1.4401    -0.3261     2.6718 C.ar    
   3 C3             2.7709    -0.6976     2.6268 C.ar    
   4 C4             3.6894     0.1722     2.0656 C.ar    
   5 C5             3.2417     1.3906     1.5614 C.ar    
   6 C6             4.2627     2.3244     0.9704 C.3     
   7 C7             3.5960     3.3467     0.0507 C.3     
   8 N8             2.4281     3.8975     0.7577 N.am    
   9 C9             1.3345     2.9738     1.0769 C.3     
  10 C10            1.9002     1.6893     1.6312 C.ar    
  11 C11            2.3660     5.2001     1.0981 C.2     
  12 O12            3.3281     5.9213     0.9199 O.2     
  13 C13            1.1276     5.7519     1.6881 C.ar    
  14 C14            1.2008     6.7468     2.6605 C.ar    
  15 C15            0.0276     7.2620     3.2115 C.ar    
  16 C16           -1.2127     6.7769     2.7844 C.ar    
  17 C17           -1.2764     5.7911     1.8206 C.ar    
  18 C18           -0.1182     5.2808     1.2675 C.ar    
  19 C19           -2.4820     7.3313     3.3782 C.3     
  20 F20           -3.5848     6.6955     2.7979 F       
  21 F21           -2.4876     7.1069     4.7591 F       
  22 F22           -2.5518     8.7061     3.1288 F       
  23 C23            0.0928     8.2845     4.2119 C.1     
  24 C24            0.1463     9.1228     5.0321 C.1     
  25 C25            0.2115    10.1453     6.0326 C.ar    
  26 C26           -0.9683    10.6565     6.5799 C.ar    
  27 C27           -0.8878    11.6433     7.5454 C.ar    
  28 C28            0.3681    12.0896     7.9350 C.ar    
  29 C29            1.4955    11.5402     7.3523 C.ar    
  30 N30            1.3942    10.5975     6.4380 N.ar    
  31 H31            0.7127    -0.9926     3.1113 H       
  32 H32            3.0885    -1.6506     3.0234 H       
  33 H33            4.7362    -0.0896     2.0197 H       
  34 H34            4.7777     2.8485     1.7754 H       
  35 H35            4.9882     1.7465     0.3979 H       
  36 H36            4.2983     4.1475    -0.1811 H       
  37 H37            3.2740     2.8598    -0.8698 H       
  38 H38            0.6785     3.4306     1.8180 H       
  39 H39            0.7652     2.7593     0.1725 H       
  40 H40            2.1615     7.1172     2.9865 H       
  41 H41           -2.2366     5.4199     1.4942 H       
  42 H42           -0.1759     4.5127     0.5105 H       
  43 H43           -1.9290    10.2867     6.2534 H       
  44 H44           -1.7821    12.0581     7.9865 H       
  45 H45            0.4636    12.8594     8.6864 H       
  46 H46            2.4731    11.8862     7.6542 H       
@<TRIPOS>BOND
   1    1    2 ar
   2    1   10 ar
   3    2    3 ar
   4    2   31 1
   5    3    4 ar
   6    3   32 1
   7    4    5 ar
   8    4   33 1
   9    5    6 1
  10    5   10 ar
  11    6    7 1
  12    6   34 1
  13    6   35 1
  14    7    8 1
  15    7   36 1
  16    7   37 1
  17    8    9 1
  18    8   11 am
  19    9   10 1
  20    9   38 1
  21    9   39 1
  22   11   12 2
  23   11   13 1
  24   13   14 ar
  25   13   18 ar
  26   14   15 ar
  27   14   40 1
  28   15   16 ar
  29   15   23 1
  30   16   17 ar
  31   16   19 1
  32   17   18 ar
  33   17   41 1
  34   18   42 1
  35   19   20 1
  36   19   21 1
  37   19   22 1
  38   23   24 3
  39   24   25 1
  40   25   26 ar
  41   25   30 ar
  42   26   27 ar
  43   26   43 1
  44   27   28 ar
  45   27   44 1
  46   28   29 ar
  47   28   45 1
  48   29   30 ar
  49   29   46 1

#	End of record

