#	Name: ASD05170042
#	Creating user name:	WinNT
#	Creation time:	15. 06. 2019 20:57

#	Modifying user name:	WinNT
#	Modification time:	15. 06. 2019 20:57

#	Program:	/corina/corina34_cracker 3.40 0067  02.08.2006

@<TRIPOS>MOLECULE
ASD05170042
  49   51    0    0    0
SMALL
NO_CHARGES


@<TRIPOS>ATOM
   1 C1             0.1710     1.3615    -0.3690 C.ar    
   2 C2             0.2002    -0.0157    -0.3514 C.ar    
   3 C3             1.3013    -0.6828     0.1709 C.ar    
   4 C4             2.3780     0.0346     0.6773 C.ar    
   5 C5             2.3581     1.4120     0.6642 C.ar    
   6 C6             1.2521     2.0880     0.1395 C.ar    
   7 O7             1.3252    -2.0408     0.1869 O.3     
   8 C8             2.4877    -2.6628     0.7380 C.3     
   9 C9             1.2268     3.5197     0.1231 C.1     
  10 C10            1.2061     4.6934     0.1096 C.1     
  11 C11            1.1807     6.1251     0.0932 C.ar    
  12 C12            0.0467     8.1650    -0.4420 C.ar    
  13 C13            0.0703     6.7998    -0.4271 C.ar    
  14 C14            2.2639     6.8504     0.6027 C.ar    
  15 C15            2.2389     8.2156     0.5871 C.ar    
  16 C16            1.1313     8.8889     0.0628 C.ar    
  17 C17            1.1051    10.3645     0.0459 C.2     
  18 O18            0.1413    10.9606     0.4865 O.2     
  19 N19            2.1496    11.0513    -0.4580 N.am    
  20 C20            3.3530    10.3485    -0.9236 C.3     
  21 C21            2.1041    12.5164    -0.5578 C.3     
  22 C22            2.4208    12.9225    -2.0006 C.3     
  23 C23            3.7574    12.3052    -2.4183 C.3     
  24 C24            3.6529    10.7837    -2.3614 C.3     
  25 C25            4.9768    10.1664    -2.8163 C.3     
  26 O26            4.8453     8.7445    -2.8716 O.3     
  27 H27           -0.6836     1.8791    -0.7790 H       
  28 H28           -0.6343    -0.5778    -0.7439 H       
  29 H29            3.2317    -0.4884     1.0823 H       
  30 H30            3.1952     1.9688     1.0587 H       
  31 H31            2.3775    -3.7461     0.6898 H       
  32 H32            3.3661    -2.3611     0.1676 H       
  33 H33            2.6061    -2.3555     1.7771 H       
  34 H34           -0.8101     8.6857    -0.8434 H       
  35 H35           -0.7675     6.2408    -0.8169 H       
  36 H36            3.1192     6.3305     1.0084 H       
  37 H37            3.0746     8.7754     0.9803 H       
  38 H38            4.1962    10.6030    -0.2814 H       
  39 H39            3.1815     9.2725    -0.8957 H       
  40 H40            1.1089    12.8703    -0.2886 H       
  41 H41            2.8432    12.9516     0.1149 H       
  42 H42            1.6318    12.5630    -2.6612 H       
  43 H43            2.4850    14.0085    -2.0671 H       
  44 H44            3.9971    12.6127    -3.4362 H       
  45 H45            4.5417    12.6457    -1.7422 H       
  46 H46            2.8500    10.4484    -3.0180 H       
  47 H47            5.2342    10.5462    -3.8050 H       
  48 H48            5.7631    10.4313    -2.1093 H       
  49 H49            5.6486     8.2858    -3.1533 H       
@<TRIPOS>BOND
   1    1    2 ar
   2    1    6 ar
   3    1   27 1
   4    2    3 ar
   5    2   28 1
   6    3    4 ar
   7    3    7 1
   8    4    5 ar
   9    4   29 1
  10    5    6 ar
  11    5   30 1
  12    6    9 1
  13    7    8 1
  14    8   31 1
  15    8   32 1
  16    8   33 1
  17    9   10 3
  18   10   11 1
  19   11   14 ar
  20   11   13 ar
  21   12   13 ar
  22   12   16 ar
  23   12   34 1
  24   13   35 1
  25   14   15 ar
  26   14   36 1
  27   15   16 ar
  28   15   37 1
  29   16   17 1
  30   17   18 2
  31   17   19 am
  32   19   21 1
  33   19   20 1
  34   20   24 1
  35   20   38 1
  36   20   39 1
  37   21   22 1
  38   21   40 1
  39   21   41 1
  40   22   23 1
  41   22   42 1
  42   22   43 1
  43   23   24 1
  44   23   44 1
  45   23   45 1
  46   24   25 1
  47   24   46 1
  48   25   26 1
  49   25   47 1
  50   25   48 1
  51   26   49 1

#	End of record

