#	Name: ASD04590509
#	Creating user name:	WinNT
#	Creation time:	15. 06. 2019 20:50

#	Modifying user name:	WinNT
#	Modification time:	15. 06. 2019 20:50

#	Program:	/corina/corina34_cracker 3.40 0067  02.08.2006

@<TRIPOS>MOLECULE
ASD04590509
  69   74    0    0    0
SMALL
NO_CHARGES


@<TRIPOS>ATOM
   1 C1            -0.0167     1.3834     0.0096 C.ar    
   2 C2             0.0021    -0.0041     0.0020 C.ar    
   3 C3             2.3948     0.0191    -0.0203 C.ar    
   4 C4             2.3756     1.4249    -0.0130 C.ar    
   5 C5             1.1624     2.0987     0.0022 C.ar    
   6 N6             3.6952    -0.3636    -0.0354 N.2     
   7 C7             4.4664     0.6967    -0.0378 C.2     
   8 N8             3.6970     1.8290    -0.0243 N.pl3   
   9 C9             5.9437     0.6731    -0.0524 C.2     
  10 C10            6.7566    -0.4840    -0.0664 C.2     
  11 C11            8.0504    -0.0799    -0.0778 C.2     
  12 N12            8.0625     1.2789    -0.0712 N.pl3   
  13 N13            6.7358     1.7272    -0.0603 N.2     
  14 N14            6.3044    -1.8133    -0.0676 N.am    
  15 C15            7.1924    -2.8271    -0.0818 C.2     
  16 O16            8.3849    -2.5906    -0.0936 O.2     
  17 C17            1.1863    -0.6848    -0.0125 C.ar    
  18 C18            6.7163    -4.2268    -0.0831 C.ar    
  19 C19            7.6333    -5.2774    -0.0978 C.ar    
  20 C20           -1.2971    -0.7677     0.0104 C.3     
  21 N21           -1.7325    -1.0083    -1.3718 N.3     
  22 C22           -2.8623    -1.9482    -1.4122 C.3     
  23 C23           -0.6187    -1.4969    -2.1976 C.3     
  24 C24           -1.1003    -1.6771    -3.6396 C.3     
  25 O25           -2.2180    -2.5691    -3.6557 O.3     
  26 C26           -3.3214    -2.1239    -2.8621 C.3     
  27 C27            7.1805    -6.5883    -0.0984 C.ar    
  28 C28            5.8165    -6.8526    -0.0848 C.ar    
  29 C29            4.9053    -5.8103    -0.0707 C.ar    
  30 C30            5.3476    -4.5008    -0.0637 C.ar    
  31 N31            8.0960    -7.6434    -0.1131 N.3     
  32 C32            7.4051    -8.9404    -0.1110 C.3     
  33 C33            8.4378   -10.0658    -0.2076 C.3     
  34 N34            9.3720    -9.9682     0.9226 N.3     
  35 C35           10.0630    -8.6712     0.9205 C.3     
  36 C36            9.0302    -7.5458     1.0171 C.3     
  37 C37           10.3348   -11.0776     0.9071 C.3     
  38 F38            3.5803    -6.0739    -0.0584 F       
  39 H39           -0.9614     1.9069     0.0170 H       
  40 H40            1.1417     3.1785     0.0079 H       
  41 H41            4.0192     2.7439    -0.0234 H       
  42 H42            8.9176    -0.7236    -0.0899 H       
  43 H43            8.8531     1.8410    -0.0766 H       
  44 H44            5.3530    -2.0020    -0.0582 H       
  45 H45            1.1893    -1.7648    -0.0177 H       
  46 H46            8.6933    -5.0708    -0.1090 H       
  47 H47           -1.1545    -1.7218     0.5177 H       
  48 H48           -2.0563    -0.1872     0.5346 H       
  49 H49           -2.5487    -2.9117    -1.0105 H       
  50 H50           -3.6848    -1.5545    -0.8151 H       
  51 H51            0.1965    -0.7737    -2.1738 H       
  52 H52           -0.2692    -2.4532    -1.8084 H       
  53 H53           -1.3996    -0.7113    -4.0468 H       
  54 H54           -0.2938    -2.0932    -4.2434 H       
  55 H55           -4.1213    -2.8632    -2.9036 H       
  56 H56           -3.6852    -1.1711    -3.2467 H       
  57 H57            5.4660    -7.8741    -0.0857 H       
  58 H58            4.6345    -3.6897    -0.0523 H       
  59 H59            6.8357    -9.0476     0.8123 H       
  60 H60            6.7286    -8.9934    -0.9640 H       
  61 H61            7.9295   -11.0295    -0.1770 H       
  62 H62            8.9887    -9.9744    -1.1437 H       
  63 H63           10.7395    -8.6182     1.7735 H       
  64 H64           10.6324    -8.5640    -0.0028 H       
  65 H65            9.5386    -6.5821     0.9865 H       
  66 H66            8.4793    -7.6372     1.9532 H       
  67 H67           10.9053   -11.0507    -0.0212 H       
  68 H68           11.0141   -10.9810     1.7540 H       
  69 H69            9.7992   -12.0244     0.9771 H       
@<TRIPOS>BOND
   1    1    2 ar
   2    1    5 ar
   3    1   39 1
   4    2   17 ar
   5    2   20 1
   6    3    4 ar
   7    3    6 1
   8    3   17 ar
   9    4    5 ar
  10    4    8 1
  11    5   40 1
  12    6    7 2
  13    7    8 1
  14    7    9 1
  15    8   41 1
  16    9   10 1
  17    9   13 2
  18   10   11 2
  19   10   14 1
  20   11   12 1
  21   11   42 1
  22   12   13 1
  23   12   43 1
  24   14   15 am
  25   14   44 1
  26   15   16 2
  27   15   18 1
  28   17   45 1
  29   18   19 ar
  30   18   30 ar
  31   19   27 ar
  32   19   46 1
  33   20   21 1
  34   20   47 1
  35   20   48 1
  36   21   22 1
  37   21   23 1
  38   22   26 1
  39   22   49 1
  40   22   50 1
  41   23   24 1
  42   23   51 1
  43   23   52 1
  44   24   25 1
  45   24   53 1
  46   24   54 1
  47   25   26 1
  48   26   55 1
  49   26   56 1
  50   27   28 ar
  51   27   31 1
  52   28   29 ar
  53   28   57 1
  54   29   30 ar
  55   29   38 1
  56   30   58 1
  57   31   32 1
  58   31   36 1
  59   32   33 1
  60   32   59 1
  61   32   60 1
  62   33   34 1
  63   33   61 1
  64   33   62 1
  65   34   35 1
  66   34   37 1
  67   35   36 1
  68   35   63 1
  69   35   64 1
  70   36   65 1
  71   36   66 1
  72   37   67 1
  73   37   68 1
  74   37   69 1

#	End of record

