#	Name: ASD04880291
#	Creating user name:	WinNT
#	Creation time:	15. 06. 2019 20:53

#	Modifying user name:	WinNT
#	Modification time:	15. 06. 2019 20:53

#	Program:	/corina/corina34_cracker 3.40 0067  02.08.2006

@<TRIPOS>MOLECULE
ASD04880291
  39   41    0    0    0
SMALL
NO_CHARGES


@<TRIPOS>ATOM
   1 C1             0.0594     1.4209     0.4311 C.3     
   2 N2             0.0447    -0.0333     0.2058 N.am    
   3 N3             1.3487    -0.4664    -0.0258 N.2     
   4 C4             2.2294     0.4727     0.0101 C.2     
   5 C5             1.5500     1.7917     0.3016 C.3     
   6 C6            -1.0509    -0.8180     0.2214 C.2     
   7 N7            -0.9345    -2.1424    -0.0002 N.am    
   8 O8            -2.1445    -0.3312     0.4354 O.2     
   9 C9            -2.0557    -2.9717     0.1121 C.ar    
  10 C10            3.6773     0.2897    -0.2001 C.ar    
  11 C11            4.1915    -0.9820    -0.4634 C.ar    
  12 C12            5.5460    -1.1495    -0.6600 C.ar    
  13 C13            6.3994    -0.0570    -0.5962 C.ar    
  14 C14            5.8930     1.2118    -0.3338 C.ar    
  15 C15            4.5383     1.3891    -0.1421 C.ar    
  16 F16            6.7278     2.2722    -0.2722 F       
  17 O17            7.7337    -0.2272    -0.7902 O.3     
  18 C18            8.1865    -1.5565    -1.0548 C.3     
  19 C19           -3.3052    -2.5088    -0.2791 C.ar    
  20 C20           -4.4111    -3.3292    -0.1680 C.ar    
  21 C21           -4.2761    -4.6105     0.3326 C.ar    
  22 C22           -3.0315    -5.0763     0.7241 C.ar    
  23 C23           -1.9201    -4.2610     0.6095 C.ar    
  24 F24           -2.9025    -6.3291     1.2130 F       
  25 H25           -0.5307     1.9328    -0.3291 H       
  26 H26           -0.3097     1.6582     1.4289 H       
  27 H27            1.7003     2.4894    -0.5222 H       
  28 H28            1.9212     2.2150     1.2349 H       
  29 H29           -0.0733    -2.5205    -0.2375 H       
  30 H30            3.5289    -1.8334    -0.5127 H       
  31 H31            5.9436    -2.1328    -0.8636 H       
  32 H32            4.1451     2.3741     0.0616 H       
  33 H33            9.2681    -1.5518    -1.1898 H       
  34 H34            7.9278    -2.2022    -0.2157 H       
  35 H35            7.7089    -1.9293    -1.9609 H       
  36 H36           -3.4123    -1.5077    -0.6698 H       
  37 H37           -5.3826    -2.9688    -0.4724 H       
  38 H38           -5.1425    -5.2495     0.4191 H       
  39 H39           -0.9497    -4.6236     0.9146 H       
@<TRIPOS>BOND
   1    1    2 1
   2    1    5 1
   3    1   25 1
   4    1   26 1
   5    2    3 1
   6    2    6 am
   7    3    4 2
   8    4    5 1
   9    4   10 1
  10    5   27 1
  11    5   28 1
  12    6    7 am
  13    6    8 2
  14    7    9 1
  15    7   29 1
  16    9   19 ar
  17    9   23 ar
  18   10   11 ar
  19   10   15 ar
  20   11   12 ar
  21   11   30 1
  22   12   13 ar
  23   12   31 1
  24   13   14 ar
  25   13   17 1
  26   14   15 ar
  27   14   16 1
  28   15   32 1
  29   17   18 1
  30   18   33 1
  31   18   34 1
  32   18   35 1
  33   19   20 ar
  34   19   36 1
  35   20   21 ar
  36   20   37 1
  37   21   22 ar
  38   21   38 1
  39   22   23 ar
  40   22   24 1
  41   23   39 1

#	End of record

