#	Name: ASD09116063
#	Creating user name:	WinNT
#	Creation time:	15. 06. 2019 21:20

#	Modifying user name:	WinNT
#	Modification time:	15. 06. 2019 21:20

#	Program:	/corina/corina34_cracker 3.40 0067  02.08.2006

@<TRIPOS>MOLECULE
ASD09116063
  66   70    0    0    0
SMALL
NO_CHARGES


@<TRIPOS>ATOM
   1 C1            -0.0666     1.3931    -0.3085 C.ar    
   2 N2            -0.0344     0.0020    -0.2552 N.pl3   
   3 N3            -1.1342    -0.8614    -0.1242 N.2     
   4 C4            -0.6625    -2.0846    -0.1160 C.2     
   5 N5             0.6698    -2.0423    -0.2341 N.2     
   6 C6             1.0678    -0.7916    -0.3254 C.2     
   7 N7             2.3735    -0.3607    -0.4587 N.pl3   
   8 N8            -1.4275    -3.2454    -0.0024 N.pl3   
   9 N9             1.0704     2.0589    -0.4352 N.ar    
  10 N10           -1.2371     2.0150    -0.2364 N.ar    
  11 C11           -1.2890     3.3281    -0.2827 C.ar    
  12 C12           -0.1169     4.0594    -0.4215 C.ar    
  13 C13            1.0839     3.3833    -0.4958 C.ar    
  14 C14           -2.5767     4.0990    -0.1724 C.3     
  15 C15           -3.1203     4.4899    -1.5095 C.3     
  16 C16           -2.5015     5.6799    -2.2163 C.3     
  17 C17           -1.1349     5.2986    -2.8141 C.3     
  18 C18           -0.0350     5.9877    -1.9591 C.3     
  19 C19           -0.2020     5.5575    -0.5026 C.3     
  20 C20           -0.8189    -4.4977    -0.1201 C.ar    
  21 C21           -1.3423    -5.5925     0.5561 C.ar    
  22 C22           -0.7385    -6.8288     0.4371 C.ar    
  23 C23            0.3861    -6.9776    -0.3537 C.ar    
  24 C24            0.9098    -5.8899    -1.0282 C.ar    
  25 C25            0.3077    -4.6519    -0.9182 C.ar    
  26 C26            1.0429    -8.3281    -0.4803 C.3     
  27 C27            1.2204   -10.2711    -1.9149 C.3     
  28 N28            0.4518    -9.0559    -1.6111 N.3     
  29 C29            0.5291   -11.0400    -3.0433 C.3     
  30 N30            0.4240   -10.1768    -4.2280 N.3     
  31 C31           -0.3446    -8.9617    -3.9243 C.3     
  32 C32            0.3467    -8.1928    -2.7959 C.3     
  33 C33           -0.1671   -10.9047    -5.3589 C.3     
  34 H34            3.0964    -1.0067    -0.4921 H       
  35 H35            2.5675     0.5877    -0.5188 H       
  36 H36           -2.3821    -3.1833     0.1584 H       
  37 H37            2.0148     3.9215    -0.5963 H       
  38 H38           -3.3141     3.4833     0.3425 H       
  39 H39           -2.3998     5.0003     0.4144 H       
  40 H40           -3.0271     3.6276    -2.1697 H       
  41 H41           -4.1841     4.6938    -1.3876 H       
  42 H42           -3.1652     6.0096    -3.0155 H       
  43 H43           -2.3686     6.4935    -1.5032 H       
  44 H44           -1.0057     4.2168    -2.7799 H       
  45 H45           -1.0730     5.6462    -3.8453 H       
  46 H46            0.9491     5.6867    -2.3184 H       
  47 H47           -0.1383     7.0702    -2.0345 H       
  48 H48           -1.1730     5.8881    -0.1338 H       
  49 H49            0.5894     6.0010     0.1016 H       
  50 H50           -2.2202    -5.4769     1.1744 H       
  51 H51           -1.1450    -7.6804     0.9626 H       
  52 H52            1.7885    -6.0094    -1.6447 H       
  53 H53            0.7170    -3.8029    -1.4455 H       
  54 H54            2.1116    -8.1978    -0.6507 H       
  55 H55            0.8877    -8.8950     0.4377 H       
  56 H56            2.2279    -9.9957    -2.2266 H       
  57 H57            1.2734   -10.8995    -1.0259 H       
  58 H58            1.1130   -11.9267    -3.2900 H       
  59 H59           -0.4685   -11.3390    -2.7216 H       
  60 H60           -0.3976    -8.3332    -4.8133 H       
  61 H61           -1.3521    -9.2371    -3.6126 H       
  62 H62           -0.2372    -7.3060    -2.5491 H       
  63 H63            1.3443    -7.8938    -3.1176 H       
  64 H64           -1.1651   -11.2489    -5.0877 H       
  65 H65           -0.2332   -10.2427    -6.2223 H       
  66 H66            0.4585   -11.7625    -5.6058 H       
@<TRIPOS>BOND
   1    1    2 1
   2    1    9 ar
   3    1   10 ar
   4    2    3 1
   5    2    6 1
   6    3    4 2
   7    4    5 1
   8    4    8 1
   9    5    6 2
  10    6    7 1
  11    7   34 1
  12    7   35 1
  13    8   20 1
  14    8   36 1
  15    9   13 ar
  16   10   11 ar
  17   11   12 ar
  18   11   14 1
  19   12   13 ar
  20   12   19 1
  21   13   37 1
  22   14   15 1
  23   14   38 1
  24   14   39 1
  25   15   16 1
  26   15   40 1
  27   15   41 1
  28   16   17 1
  29   16   42 1
  30   16   43 1
  31   17   18 1
  32   17   44 1
  33   17   45 1
  34   18   19 1
  35   18   46 1
  36   18   47 1
  37   19   48 1
  38   19   49 1
  39   20   21 ar
  40   20   25 ar
  41   21   22 ar
  42   21   50 1
  43   22   23 ar
  44   22   51 1
  45   23   24 ar
  46   23   26 1
  47   24   25 ar
  48   24   52 1
  49   25   53 1
  50   26   28 1
  51   26   54 1
  52   26   55 1
  53   27   28 1
  54   27   29 1
  55   27   56 1
  56   27   57 1
  57   28   32 1
  58   29   30 1
  59   29   58 1
  60   29   59 1
  61   30   31 1
  62   30   33 1
  63   31   32 1
  64   31   60 1
  65   31   61 1
  66   32   62 1
  67   32   63 1
  68   33   64 1
  69   33   65 1
  70   33   66 1

#	End of record

