#	Name: ASD02038105
#	Creating user name:	WinNT
#	Creation time:	15. 06. 2019 20:16

#	Modifying user name:	WinNT
#	Modification time:	15. 06. 2019 20:16

#	Program:	/corina/corina34_cracker 3.40 0067  02.08.2006

@<TRIPOS>MOLECULE
ASD02038105
  46   48    0    0    0
SMALL
NO_CHARGES


@<TRIPOS>ATOM
   1 C1            -0.0167     1.3796     0.0096 C.ar    
   2 C2             0.0021    -0.0041     0.0020 C.ar    
   3 C3             1.1706     2.0903     0.0021 C.ar    
   4 C4             2.3781     1.4200    -0.0135 C.ar    
   5 C5             2.3999     0.0313    -0.0211 C.ar    
   6 C6             1.2066    -0.6796    -0.0126 C.ar    
   7 N7             3.6201    -0.6496    -0.0368 N.pl3   
   8 N8             5.1128    -4.0720    -0.0700 N.3     
   9 C9             5.0913    -2.6031    -0.0619 C.3     
  10 C10            3.6416    -2.1144    -0.0449 C.3     
  11 C11            6.4918    -4.5782    -0.0864 C.3     
  12 C12            6.4733    -6.1081    -0.0944 C.3     
  13 C13            7.9095    -6.6353    -0.1114 C.3     
  14 O14            5.8056    -6.5825     1.0766 O.3     
  15 O15            7.8929    -8.0587    -0.2363 O.3     
  16 C16            9.0969    -8.6898    -0.2671 C.ar    
  17 C17            9.1510   -10.0690    -0.3867 C.ar    
  18 C18           10.3785   -10.7117    -0.4181 C.ar    
  19 C19           11.5534    -9.9656    -0.3291 C.ar    
  20 C20           11.4941    -8.5860    -0.2102 C.ar    
  21 C21           10.2688    -7.9495    -0.1844 C.ar    
  22 O22           10.7360   -12.0150    -0.5249 O.3     
  23 C23           12.0749   -12.1089    -0.5060 C.2     
  24 N24           12.6097   -10.8775    -0.3875 N.am    
  25 O25           12.7073   -13.1445    -0.5842 O.2     
  26 Cl26          -1.5326     2.2254     0.0214 Cl      
  27 H27           -0.9261    -0.5562     0.0079 H       
  28 H28            1.1531     3.1701     0.0081 H       
  29 H29            3.3044     1.9752    -0.0200 H       
  30 H30            1.2207    -1.7594    -0.0182 H       
  31 H31            4.4529    -0.1523    -0.0425 H       
  32 H32            4.5998    -4.4454     0.7145 H       
  33 H33            5.6086    -2.2371     0.8250 H       
  34 H34            5.5909    -2.2275    -0.9549 H       
  35 H35            3.1420    -2.4900     0.8481 H       
  36 H36            3.1243    -2.4805    -0.9318 H       
  37 H37            7.0011    -4.2163    -0.9795 H       
  38 H38            7.0187    -4.2258     0.8003 H       
  39 H39            5.9464    -6.4604    -0.9810 H       
  40 H40            8.4454    -6.2027    -0.9563 H       
  41 H41            8.4095    -6.3578     0.8165 H       
  42 H42            6.2208    -6.3065     1.9052 H       
  43 H43            8.2383   -10.6424    -0.4550 H       
  44 H44           12.4047    -8.0095    -0.1410 H       
  45 H45           10.2218    -6.8745    -0.0922 H       
  46 H46           13.5551   -10.6636    -0.3496 H       
@<TRIPOS>BOND
   1    1    2 ar
   2    1    3 ar
   3    1   26 1
   4    2    6 ar
   5    2   27 1
   6    3    4 ar
   7    3   28 1
   8    4    5 ar
   9    4   29 1
  10    5    6 ar
  11    5    7 1
  12    6   30 1
  13    7   10 1
  14    7   31 1
  15    8    9 1
  16    8   11 1
  17    8   32 1
  18    9   10 1
  19    9   33 1
  20    9   34 1
  21   10   35 1
  22   10   36 1
  23   11   12 1
  24   11   37 1
  25   11   38 1
  26   12   14 1
  27   12   13 1
  28   12   39 1
  29   13   15 1
  30   13   40 1
  31   13   41 1
  32   14   42 1
  33   15   16 1
  34   16   17 ar
  35   16   21 ar
  36   17   18 ar
  37   17   43 1
  38   18   19 ar
  39   18   22 1
  40   19   20 ar
  41   19   24 1
  42   20   21 ar
  43   20   44 1
  44   21   45 1
  45   22   23 1
  46   23   24 am
  47   23   25 2
  48   24   46 1

#	End of record

