#	Name: ASD02500300
#	Creating user name:	WinNT
#	Creation time:	15. 06. 2019 20:22

#	Modifying user name:	WinNT
#	Modification time:	15. 06. 2019 20:22

#	Program:	/corina/corina34_cracker 3.40 0067  02.08.2006

@<TRIPOS>MOLECULE
ASD02500300
  63   67    0    0    0
SMALL
NO_CHARGES


@<TRIPOS>ATOM
   1 N1            -3.1517     2.6787     1.6706 N.ar    
   2 C2            -3.7661     1.5351     1.8522 C.ar    
   3 C3            -3.8331     0.9296     3.1053 C.ar    
   4 C4            -3.2483     1.5291     4.1842 C.ar    
   5 C5            -2.5889     2.7569     3.9853 C.ar    
   6 C6            -1.9652     3.4321     5.0464 C.ar    
   7 C7            -1.3379     4.6181     4.8133 C.ar    
   8 C8            -1.3070     5.1713     3.5350 C.ar    
   9 C9            -1.9013     4.5437     2.4836 C.ar    
  10 C10           -2.5588     3.3177     2.6842 C.ar    
  11 S11           -1.8477     5.2660     0.8774 S.o2    
  12 O12           -3.1628     5.1662     0.3484 O.2     
  13 O13           -1.1570     6.5002     1.0153 O.2     
  14 N14           -0.8901     4.2970    -0.0641 N.am    
  15 C15           -1.2672     2.9829    -0.3180 C.ar    
  16 C16           -2.3037     2.7174    -1.2088 C.ar    
  17 C17           -2.6792     1.4181    -1.4622 C.ar    
  18 C18           -2.0188     0.3641    -0.8240 C.ar    
  19 C19           -0.9785     0.6339     0.0699 C.ar    
  20 C20           -0.6038     1.9352     0.3147 C.ar    
  21 C21           -2.4192    -1.0300    -1.0931 C.2     
  22 O22           -3.5878    -1.2988    -1.2949 O.2     
  23 N23           -1.4898    -2.0058    -1.1152 N.am    
  24 C24           -0.0764    -1.7394    -0.7435 C.3     
  25 C25            0.1589    -2.1694     0.6303 C.3     
  26 N26           -0.2539    -3.5878     0.7873 N.am    
  27 C27           -1.6407    -3.8416     0.9655 C.3     
  28 C28           -2.4084    -4.2148    -0.3447 C.3     
  29 C29           -1.8197    -3.3365    -1.4893 C.3     
  30 C30            0.6471    -4.5898     0.7613 C.2     
  31 C31            0.2327    -5.9653     1.1079 C.ar    
  32 C32            1.1868    -6.9079     1.4961 C.ar    
  33 C33            0.7940    -8.1898     1.8183 C.ar    
  34 C34           -0.5438    -8.5433     1.7570 C.ar    
  35 C35           -1.4948    -7.6127     1.3721 C.ar    
  36 C36           -1.1150    -6.3258     1.0540 C.ar    
  37 O37            1.8007    -4.3620     0.4527 O.2     
  38 Cl38          -1.0305   -10.1593     2.1635 Cl      
  39 H39           -4.2332     1.0495     1.0082 H       
  40 H40           -4.3473    -0.0128     3.2235 H       
  41 H41           -3.2908     1.0740     5.1627 H       
  42 H42           -1.9831     3.0136     6.0419 H       
  43 H43           -0.8584     5.1369     5.6302 H       
  44 H44           -0.8037     6.1135     3.3759 H       
  45 H45           -0.0662     4.6460    -0.4385 H       
  46 H46           -2.8138     3.5322    -1.7012 H       
  47 H47           -3.4836     1.2128    -2.1530 H       
  48 H48           -0.4666    -0.1782     0.5647 H       
  49 H49            0.2030     2.1442     1.0016 H       
  50 H50            0.5847    -2.2886    -1.4139 H       
  51 H51            0.1262    -0.6718    -0.8293 H       
  52 H52            1.2189    -2.0720     0.8645 H       
  53 H53           -0.4212    -1.5454     1.3102 H       
  54 H54           -1.7531    -4.6602     1.6763 H       
  55 H55           -2.1020    -2.9518     1.3941 H       
  56 H56           -2.2617    -5.2705    -0.5726 H       
  57 H57           -3.4711    -4.0044    -0.2246 H       
  58 H58           -2.5509    -3.2966    -2.2966 H       
  59 H59           -0.9199    -3.8215    -1.8677 H       
  60 H60            2.2303    -6.6336     1.5436 H       
  61 H61            1.5311    -8.9198     2.1187 H       
  62 H62           -2.5364    -7.8942     1.3258 H       
  63 H63           -1.8580    -5.5996     0.7590 H       
@<TRIPOS>BOND
   1    1    2 ar
   2    1   10 ar
   3    2    3 ar
   4    2   39 1
   5    3    4 ar
   6    3   40 1
   7    4    5 ar
   8    4   41 1
   9    5    6 ar
  10    5   10 ar
  11    6    7 ar
  12    6   42 1
  13    7    8 ar
  14    7   43 1
  15    8    9 ar
  16    8   44 1
  17    9   10 ar
  18    9   11 1
  19   11   12 2
  20   11   13 2
  21   11   14 am
  22   14   15 1
  23   14   45 1
  24   15   16 ar
  25   15   20 ar
  26   16   17 ar
  27   16   46 1
  28   17   18 ar
  29   17   47 1
  30   18   19 ar
  31   18   21 1
  32   19   20 ar
  33   19   48 1
  34   20   49 1
  35   21   22 2
  36   21   23 am
  37   23   24 1
  38   23   29 1
  39   24   25 1
  40   24   50 1
  41   24   51 1
  42   25   26 1
  43   25   52 1
  44   25   53 1
  45   26   27 1
  46   26   30 am
  47   27   28 1
  48   27   54 1
  49   27   55 1
  50   28   29 1
  51   28   56 1
  52   28   57 1
  53   29   58 1
  54   29   59 1
  55   30   31 1
  56   30   37 2
  57   31   32 ar
  58   31   36 ar
  59   32   33 ar
  60   32   60 1
  61   33   34 ar
  62   33   61 1
  63   34   35 ar
  64   34   38 1
  65   35   36 ar
  66   35   62 1
  67   36   63 1

#	End of record

