#	Name: ASD01412026
#	Creating user name:	WinNT
#	Creation time:	15. 06. 2019 19:19

#	Modifying user name:	WinNT
#	Modification time:	15. 06. 2019 19:19

#	Program:	/corina/corina34_cracker 3.40 0067  02.08.2006

@<TRIPOS>MOLECULE
ASD01412026
  81   85    0    0    0
SMALL
NO_CHARGES


@<TRIPOS>ATOM
   1 C1            -1.5087     2.4282     2.6844 C.ar    
   2 C2            -1.2950     1.0934     2.2848 C.ar    
   3 C3            -2.3840     0.2904     1.9162 C.ar    
   4 C4            -3.6459     0.7996     1.9440 C.ar    
   5 C5            -3.8682     2.1265     2.3402 C.ar    
   6 C6            -2.7986     2.9366     2.7141 C.ar    
   7 N7            -0.2758     2.9675     2.9855 N.pl3   
   8 C8             0.6887     2.0080     2.7841 C.2     
   9 C9             0.0998     0.8617     2.3591 C.2     
  10 C10            0.8046    -0.4279     2.0257 C.3     
  11 C11            0.2843    -1.5432     2.9347 C.3     
  12 C12            0.9999    -2.8525     2.5963 C.3     
  13 C13            0.7305    -3.2181     1.1352 C.3     
  14 C14            1.2508    -2.1028     0.2262 C.3     
  15 C15            0.5352    -0.7935     0.5647 C.3     
  16 C16           -5.2420     2.6654     2.3656 C.2     
  17 O17           -5.4377     3.8153     2.7086 O.2     
  18 N18           -6.2795     1.8828     2.0084 N.am    
  19 C19           -7.6432     2.4177     2.0336 C.3     
  20 C20           -8.6102     1.3490     1.5933 C.2     
  21 C21           -7.9895     2.8647     3.4552 C.3     
  22 C22           -7.7391     3.6144     1.0851 C.3     
  23 C23           -9.1223    -0.5610     0.2776 C.ar    
  24 O24           -9.7139     1.2871     2.0922 O.2     
  25 C25          -10.4913    -0.3171     0.2212 C.ar    
  26 C26          -11.3568    -1.3220    -0.1461 C.ar    
  27 C27          -10.8580    -2.5912    -0.4637 C.ar    
  28 C28           -9.4799    -2.8317    -0.4059 C.ar    
  29 C29           -8.6220    -1.8209    -0.0371 C.ar    
  30 C30          -11.7782    -3.6675    -0.8559 C.2     
  31 C31          -12.8263    -3.3989    -1.6651 C.2     
  32 N32           -8.2485     0.4620     0.6452 N.am    
  33 C33           -0.0332     4.3376     3.4441 C.3     
  34 C34            2.1396     2.1962     2.9964 C.ar    
  35 C35            2.5867     3.1059     3.9548 C.ar    
  36 C36            3.9480     3.2707     4.1417 C.ar    
  37 C37            4.8193     2.5207     3.3644 C.ar    
  38 C38            4.3076     1.6363     2.4318 C.ar    
  39 N39            3.0076     1.4936     2.2767 N.ar    
  40 C40            5.2508     0.8206     1.5856 C.3     
  41 C41          -12.8444    -2.2044    -2.4286 C.2     
  42 O42          -11.8534    -1.5009    -2.4810 O.2     
  43 O43          -13.9609    -1.8480    -3.0972 O.3     
  44 H44           -2.2212    -0.7324     1.6099 H       
  45 H45           -4.4816     0.1778     1.6586 H       
  46 H46           -2.9723     3.9580     3.0192 H       
  47 H47            1.8770    -0.3057     2.1779 H       
  48 H48            0.4763    -1.2828     3.9756 H       
  49 H49           -0.7881    -1.6654     2.7826 H       
  50 H50            2.0723    -2.7303     2.7484 H       
  51 H51            0.6292    -3.6471     3.2439 H       
  52 H52            1.2403    -4.1508     0.8941 H       
  53 H53           -0.3419    -3.3402     0.9831 H       
  54 H54            2.3231    -1.9806     0.3784 H       
  55 H55            1.0588    -2.3632    -0.8147 H       
  56 H56           -0.5372    -0.9156     0.4125 H       
  57 H57            0.9058     0.0011    -0.0829 H       
  58 H58           -6.1234     0.9654     1.7347 H       
  59 H59           -7.2901     3.6377     3.7736 H       
  60 H60           -9.0041     3.2627     3.4739 H       
  61 H61           -7.9211     2.0121     4.1309 H       
  62 H62           -7.4924     3.2960     0.0723 H       
  63 H63           -8.7537     4.0124     1.1038 H       
  64 H64           -7.0397     4.3874     1.4035 H       
  65 H65          -10.8751     0.6622     0.4663 H       
  66 H66          -12.4191    -1.1320    -0.1889 H       
  67 H67           -9.0909    -3.8093    -0.6497 H       
  68 H68           -7.5589    -2.0055     0.0073 H       
  69 H69          -11.6167    -4.6734    -0.4974 H       
  70 H70          -13.6502    -4.0940    -1.7303 H       
  71 H71           -7.3804     0.5351     0.2186 H       
  72 H72           -0.0634     4.3668     4.5333 H       
  73 H73            0.9464     4.6682     3.0989 H       
  74 H74           -0.8020     4.9970     3.0415 H       
  75 H75            1.8805     3.6738     4.5424 H       
  76 H76            4.3240     3.9678     4.8759 H       
  77 H77            5.8871     2.6268     3.4861 H       
  78 H78            5.4712    -0.1198     2.0908 H       
  79 H79            4.7876     0.6148     0.6206 H       
  80 H80            6.1758     1.3768     1.4334 H       
  81 H81          -13.8774    -1.0194    -3.5887 H       
@<TRIPOS>BOND
   1    1    2 ar
   2    1    7 1
   3    1    6 ar
   4    2    3 ar
   5    2    9 1
   6    3    4 ar
   7    3   44 1
   8    4    5 ar
   9    4   45 1
  10    5    6 ar
  11    5   16 1
  12    6   46 1
  13    7    8 1
  14    7   33 1
  15    8    9 2
  16    8   34 1
  17    9   10 1
  18   10   11 1
  19   10   15 1
  20   10   47 1
  21   11   12 1
  22   11   48 1
  23   11   49 1
  24   12   13 1
  25   12   50 1
  26   12   51 1
  27   13   14 1
  28   13   52 1
  29   13   53 1
  30   14   15 1
  31   14   54 1
  32   14   55 1
  33   15   56 1
  34   15   57 1
  35   16   17 2
  36   16   18 am
  37   18   19 1
  38   18   58 1
  39   19   20 1
  40   19   21 1
  41   19   22 1
  42   20   24 2
  43   20   32 am
  44   21   59 1
  45   21   60 1
  46   21   61 1
  47   22   62 1
  48   22   63 1
  49   22   64 1
  50   23   25 ar
  51   23   29 ar
  52   23   32 1
  53   25   26 ar
  54   25   65 1
  55   26   27 ar
  56   26   66 1
  57   27   28 ar
  58   27   30 1
  59   28   29 ar
  60   28   67 1
  61   29   68 1
  62   30   31 2
  63   30   69 1
  64   31   41 1
  65   31   70 1
  66   32   71 1
  67   33   72 1
  68   33   73 1
  69   33   74 1
  70   34   35 ar
  71   34   39 ar
  72   35   36 ar
  73   35   75 1
  74   36   37 ar
  75   36   76 1
  76   37   38 ar
  77   37   77 1
  78   38   39 ar
  79   38   40 1
  80   40   78 1
  81   40   79 1
  82   40   80 1
  83   41   42 2
  84   41   43 1
  85   43   81 1

#	End of record

