#	Name: ASD08190001
#	Creating user name:	WinNT
#	Creation time:	15. 06. 2019 21:19

#	Modifying user name:	WinNT
#	Modification time:	15. 06. 2019 21:19

#	Program:	/corina/corina34_cracker 3.40 0067  02.08.2006

@<TRIPOS>MOLECULE
ASD08190001
  54   56    0    0    0
SMALL
NO_CHARGES


@<TRIPOS>ATOM
   1 C1            -0.0063     1.3987    -0.0341 C.ar    
   2 C2             0.0041     0.0163    -0.0066 C.ar    
   3 C3             1.2064    -0.6672    -0.0047 C.ar    
   4 C4             2.4044     0.0380    -0.0303 C.ar    
   5 C5             2.3887     1.4257    -0.0578 C.ar    
   6 C6             1.1840     2.1019    -0.0596 C.ar    
   7 C7            -1.2956    -0.7460     0.0216 C.3     
   8 N8             3.6243    -0.6503    -0.0279 N.am    
   9 C9             4.7337    -0.0537     0.4516 C.2     
  10 N10            5.8893    -0.7430     0.5297 N.am    
  11 O11            4.6920     1.1062     0.8138 O.2     
  12 C12            7.0630    -0.0976     0.9357 C.ar    
  13 C13            7.0190     0.9118     1.8937 C.ar    
  14 C14            8.2074     1.5206     2.2633 C.ar    
  15 C15            9.3883     1.1097     1.6740 C.ar    
  16 N16            9.3961     0.1503     0.7691 N.ar    
  17 C17            8.2894    -0.4585     0.3929 C.ar    
  18 C18           10.6848     1.7676     2.0706 C.3     
  19 N19           -1.5824    -1.1740     1.3973 N.3     
  20 C20           -2.9452    -1.7097     1.5085 C.3     
  21 C21           -3.2590    -2.0088     2.9761 C.3     
  22 C22           -2.2462    -3.0239     3.5130 C.3     
  23 C23           -0.8322    -2.4620     3.3412 C.3     
  24 C24           -0.5887    -2.1498     1.8629 C.3     
  25 C25           -2.5133    -3.2773     4.9743 C.2     
  26 O26           -3.4205    -2.7052     5.5307 O.2     
  27 F27            1.2168    -2.0179     0.0226 F       
  28 O28           -1.7434    -4.1385     5.6578 O.3     
  29 C29           -2.0585    -4.3334     7.0617 C.3     
  30 H30           -0.9463     1.9304    -0.0401 H       
  31 H31            3.3175     1.9763    -0.0774 H       
  32 H32            1.1720     3.1816    -0.0810 H       
  33 H33           -2.1012    -0.1041    -0.3346 H       
  34 H34           -1.2171    -1.6219    -0.6225 H       
  35 H35            3.6708    -1.5562    -0.3714 H       
  36 H36            5.9075    -1.6863     0.3046 H       
  37 H37            6.0816     1.2130     2.3375 H       
  38 H38            8.2110     2.3074     3.0031 H       
  39 H39            8.3356    -1.2402    -0.3509 H       
  40 H40           11.1249     1.2274     2.9088 H       
  41 H41           11.3737     1.7514     1.2260 H       
  42 H42           10.4937     2.7999     2.3638 H       
  43 H43           -3.6559    -0.9764     1.1273 H       
  44 H44           -3.0232    -2.6277     0.9260 H       
  45 H45           -3.1947    -1.0886     3.5569 H       
  46 H46           -4.2649    -2.4209     3.0565 H       
  47 H47           -2.3370    -3.9576     2.9579 H       
  48 H48           -0.7297    -1.5490     3.9277 H       
  49 H49           -0.1042    -3.1980     3.6824 H       
  50 H50           -0.6778    -3.0657     1.2788 H       
  51 H51            0.4121    -1.7362     1.7392 H       
  52 H52           -1.3621    -5.0519     7.4941 H       
  53 H53           -1.9736    -3.3830     7.5885 H       
  54 H54           -3.0764    -4.7117     7.1565 H       
@<TRIPOS>BOND
   1    1    2 ar
   2    1    6 ar
   3    1   30 1
   4    2    3 ar
   5    2    7 1
   6    3    4 ar
   7    3   27 1
   8    4    5 ar
   9    4    8 1
  10    5    6 ar
  11    5   31 1
  12    6   32 1
  13    7   19 1
  14    7   33 1
  15    7   34 1
  16    8    9 am
  17    8   35 1
  18    9   10 am
  19    9   11 2
  20   10   12 1
  21   10   36 1
  22   12   13 ar
  23   12   17 ar
  24   13   14 ar
  25   13   37 1
  26   14   15 ar
  27   14   38 1
  28   15   16 ar
  29   15   18 1
  30   16   17 ar
  31   17   39 1
  32   18   40 1
  33   18   41 1
  34   18   42 1
  35   19   20 1
  36   19   24 1
  37   20   21 1
  38   20   43 1
  39   20   44 1
  40   21   22 1
  41   21   45 1
  42   21   46 1
  43   22   23 1
  44   22   25 1
  45   22   47 1
  46   23   24 1
  47   23   48 1
  48   23   49 1
  49   24   50 1
  50   24   51 1
  51   25   26 2
  52   25   28 1
  53   28   29 1
  54   29   52 1
  55   29   53 1
  56   29   54 1

#	End of record

