#	Name: ASD03910101
#	Creating user name:	WinNT
#	Creation time:	15. 06. 2019 20:47

#	Modifying user name:	WinNT
#	Modification time:	15. 06. 2019 20:47

#	Program:	/corina/corina34_cracker 3.40 0067  02.08.2006

@<TRIPOS>MOLECULE
ASD03910101
  43   44    0    0    0
SMALL
NO_CHARGES


@<TRIPOS>ATOM
   1 C1            -0.0173     1.4248     0.0099 C.3     
   2 O2             0.0021    -0.0041     0.0020 O.3     
   3 C3            -1.1961    -0.6353     0.0101 C.ar    
   4 C4            -1.2501    -2.0393     0.0030 C.ar    
   5 C5            -2.4842    -2.6837     0.0114 C.ar    
   6 C6            -3.6590    -1.9294     0.0266 C.ar    
   7 C7            -3.5918    -0.5288     0.0335 C.ar    
   8 C8            -2.3715     0.1061     0.0310 C.ar    
   9 C9            -4.9647    -2.6028     0.0350 C.2     
  10 O10           -5.9850    -1.9472     0.0483 O.2     
  11 C11           -0.0040    -2.8275    -0.0136 C.2     
  12 O12            1.0719    -2.2630    -0.0212 O.2     
  13 O13           -0.0585    -4.1738    -0.0203 O.3     
  14 O14            2.7380     3.9788    -0.0027 O.3     
  15 C15            2.8972     5.3237     0.0030 C.ar    
  16 C16            4.1883     5.8779    -0.0064 C.ar    
  17 C17            4.3469     7.2610    -0.0005 C.ar    
  18 C18            3.2214     8.0870     0.0147 C.ar    
  19 C19            1.9381     7.5217     0.0239 C.ar    
  20 C20            1.7833     6.1549     0.0123 C.ar    
  21 C21            3.3814     9.5473     0.0215 C.2     
  22 O22            2.4033    10.2645     0.0347 O.2     
  23 C23            5.3712     4.9977    -0.0219 C.2     
  24 O24            5.2303     3.7908    -0.0266 O.2     
  25 O25            6.6082     5.5316    -0.0308 O.3     
  26 C26            1.4181     1.9544    -0.0010 C.3     
  27 C27            1.3973     3.4842     0.0074 C.3     
  28 H28           -0.5445     1.7859    -0.8732 H       
  29 H29           -0.5275     1.7763     0.9067 H       
  30 H30           -2.5325    -3.7626     0.0057 H       
  31 H31           -4.5013     0.0535     0.0453 H       
  32 H32           -2.3266     1.1851     0.0412 H       
  33 H33           -5.0160    -3.6815     0.0293 H       
  34 H34            0.7846    -4.6473    -0.0312 H       
  35 H35            5.3366     7.6933    -0.0072 H       
  36 H36            1.0683     8.1617     0.0357 H       
  37 H37            0.7922     5.7258     0.0147 H       
  38 H38            4.3699     9.9823     0.0148 H       
  39 H39            7.3527     4.9145    -0.0409 H       
  40 H40            1.9453     1.5933     0.8821 H       
  41 H41            1.9283     1.6028    -0.8978 H       
  42 H42            0.8871     3.8357     0.9042 H       
  43 H43            0.8701     3.8453    -0.8756 H       
@<TRIPOS>BOND
   1    1    2 1
   2    1   26 1
   3    1   28 1
   4    1   29 1
   5    2    3 1
   6    3    4 ar
   7    3    8 ar
   8    4    5 ar
   9    4   11 1
  10    5    6 ar
  11    5   30 1
  12    6    7 ar
  13    6    9 1
  14    7    8 ar
  15    7   31 1
  16    8   32 1
  17    9   10 2
  18    9   33 1
  19   11   12 2
  20   11   13 1
  21   13   34 1
  22   14   15 1
  23   14   27 1
  24   15   16 ar
  25   15   20 ar
  26   16   17 ar
  27   16   23 1
  28   17   18 ar
  29   17   35 1
  30   18   19 ar
  31   18   21 1
  32   19   20 ar
  33   19   36 1
  34   20   37 1
  35   21   22 2
  36   21   38 1
  37   23   24 2
  38   23   25 1
  39   25   39 1
  40   26   27 1
  41   26   40 1
  42   26   41 1
  43   27   42 1
  44   27   43 1

#	End of record

