#	Name: ASD01883231
#	Creating user name:	WinNT
#	Creation time:	15. 06. 2019 19:46

#	Modifying user name:	WinNT
#	Modification time:	15. 06. 2019 19:46

#	Program:	/corina/corina34_cracker 3.40 0067  02.08.2006

@<TRIPOS>MOLECULE
ASD01883231
  57   58    0    0    0
SMALL
NO_CHARGES


@<TRIPOS>ATOM
   1 N1            -0.0162     1.3417     0.0094 N.am    
   2 C2             0.0021    -0.0041     0.0020 C.2     
   3 C3            -1.2159    -0.7274     0.0102 C.2     
   4 C4            -2.4263    -0.0109     0.0261 C.2     
   5 C5            -2.3786     1.3974     0.0332 C.2     
   6 C6            -1.1852     2.0327     0.0299 C.2     
   7 O7             1.0657    -0.6000    -0.0122 O.2     
   8 C8            -1.2149    -2.1593     0.0021 C.1     
   9 N9            -1.2141    -3.2953    -0.0044 N.1     
  10 C10            1.2513     2.0763     0.0013 C.3     
  11 C11            1.6788     2.3398    -1.4440 C.3     
  12 C12            3.0025     3.1070    -1.4525 C.3     
  13 C13            3.4930     3.2616    -2.8935 C.3     
  14 C14            2.7941     4.4905    -0.8334 C.3     
  15 C15           -3.7215    -0.7207     0.0347 C.ar    
  16 C16           -4.5703    -0.6149     1.1400 C.ar    
  17 C17           -5.7804    -1.2796     1.1439 C.ar    
  18 C18           -6.1538    -2.0552     0.0451 C.ar    
  19 C19           -5.3087    -2.1602    -1.0537 C.ar    
  20 C20           -4.1028    -1.4942    -1.0646 C.ar    
  21 N21           -7.3762    -2.7263     0.0497 N.3     
  22 C22           -8.2248    -2.2821    -1.0641 C.3     
  23 C23           -9.6359    -2.8462    -0.8865 C.3     
  24 O24          -10.2286    -2.2861     0.2870 O.3     
  25 C25          -11.5553    -2.7496     0.5459 C.3     
  26 C26           -7.1781    -4.1814     0.0129 C.3     
  27 O27           -6.6084    -1.1790     2.2183 O.3     
  28 C28           -6.1622    -0.3687     3.3075 C.3     
  29 H29           -3.2949     1.9690     0.0450 H       
  30 H30           -1.1610     3.1124     0.0358 H       
  31 H31            1.1243     3.0257     0.5214 H       
  32 H32            2.0168     1.4857     0.5046 H       
  33 H33            1.8057     1.3903    -1.9642 H       
  34 H34            0.9133     2.9303    -1.9474 H       
  35 H35            3.7445     2.5577    -0.8731 H       
  36 H36            2.7510     3.8109    -3.4729 H       
  37 H37            4.4361     3.8082    -2.8995 H       
  38 H38            3.6415     2.2760    -3.3345 H       
  39 H39            2.0520     5.0398    -1.4129 H       
  40 H40            2.4446     4.3803     0.1931 H       
  41 H41            3.7371     5.0371    -0.8395 H       
  42 H42           -4.2799    -0.0147     1.9896 H       
  43 H43           -5.6001    -2.7614    -1.9022 H       
  44 H44           -3.4479    -1.5773    -1.9194 H       
  45 H45           -8.2677    -1.1930    -1.0763 H       
  46 H46           -7.8062    -2.6398    -2.0048 H       
  47 H47          -10.2412    -2.5912    -1.7564 H       
  48 H48           -9.5838    -3.9302    -0.7852 H       
  49 H49          -12.2004    -2.4926    -0.2942 H       
  50 H50          -11.5430    -3.8317     0.6769 H       
  51 H51          -11.9344    -2.2782     1.4526 H       
  52 H52           -6.6054    -4.4923     0.8867 H       
  53 H53           -8.1473    -4.6802     0.0174 H       
  54 H54           -6.6347    -4.4513    -0.8926 H       
  55 H55           -6.0070     0.6529     2.9607 H       
  56 H56           -6.9143    -0.3743     4.0964 H       
  57 H57           -5.2249    -0.7667     3.6963 H       
@<TRIPOS>BOND
   1    1    2 am
   2    1   10 1
   3    1    6 1
   4    2    3 1
   5    2    7 2
   6    3    4 2
   7    3    8 1
   8    4    5 1
   9    4   15 1
  10    5    6 2
  11    5   29 1
  12    6   30 1
  13    8    9 3
  14   10   11 1
  15   10   31 1
  16   10   32 1
  17   11   12 1
  18   11   33 1
  19   11   34 1
  20   12   13 1
  21   12   14 1
  22   12   35 1
  23   13   36 1
  24   13   37 1
  25   13   38 1
  26   14   39 1
  27   14   40 1
  28   14   41 1
  29   15   16 ar
  30   15   20 ar
  31   16   17 ar
  32   16   42 1
  33   17   18 ar
  34   17   27 1
  35   18   19 ar
  36   18   21 1
  37   19   20 ar
  38   19   43 1
  39   20   44 1
  40   21   22 1
  41   21   26 1
  42   22   23 1
  43   22   45 1
  44   22   46 1
  45   23   24 1
  46   23   47 1
  47   23   48 1
  48   24   25 1
  49   25   49 1
  50   25   50 1
  51   25   51 1
  52   26   52 1
  53   26   53 1
  54   26   54 1
  55   27   28 1
  56   28   55 1
  57   28   56 1
  58   28   57 1

#	End of record

