#	Name: ASD01230615
#	Creating user name:	WinNT
#	Creation time:	15. 06. 2019 19:14

#	Modifying user name:	WinNT
#	Modification time:	15. 06. 2019 19:14

#	Program:	/corina/corina34_cracker 3.40 0067  02.08.2006

@<TRIPOS>MOLECULE
ASD01230615
  38   40    0    0    0
SMALL
NO_CHARGES


@<TRIPOS>ATOM
   1 C1            -0.0185     1.5104     0.0103 C.2     
   2 C2             0.0021    -0.0041     0.0020 C.3     
   3 C3             1.0980    -0.4523     0.9780 C.3     
   4 C4             2.4559     0.0188     0.4649 C.3     
   5 C5             2.4624     1.5037     0.2218 C.ar    
   6 C6             3.6717     2.1774     0.2161 C.ar    
   7 C7             3.7154     3.5385    -0.0066 C.ar    
   8 C8             2.5389     4.2546    -0.2303 C.ar    
   9 C9             1.3172     3.5903    -0.2263 C.ar    
  10 C10            1.2797     2.2135     0.0017 C.ar    
  11 O11           -1.0643     2.1239     0.0187 O.2     
  12 C12           -1.3543    -0.5453     0.4585 C.3     
  13 C13            0.3194    -0.5124    -1.4058 C.3     
  14 C14            3.3085     6.5567     0.3933 C.ar    
  15 C15            2.5910     5.7172    -0.4706 C.ar    
  16 C16            1.9275     6.2811    -1.5600 C.ar    
  17 C17            2.0067     7.6531    -1.7420 C.ar    
  18 C18            2.7332     8.4160    -0.8485 C.ar    
  19 N19            3.3533     7.8610     0.1759 N.ar    
  20 N20            3.9712     6.0168     1.4867 N.pl3   
  21 H21            0.9099    -0.0186     1.9602 H       
  22 H22            1.0951    -1.5397     1.0536 H       
  23 H23            3.2206    -0.2256     1.2023 H       
  24 H24            2.6835    -0.4967    -0.4681 H       
  25 H25            4.5887     1.6332     0.3878 H       
  26 H26            4.6654     4.0524    -0.0075 H       
  27 H27            0.4017     4.1369    -0.3981 H       
  28 H28           -2.1326    -0.1924    -0.2181 H       
  29 H29           -1.3321    -1.6350     0.4500 H       
  30 H30           -1.5643    -0.1940     1.4687 H       
  31 H31            1.2949    -0.1377    -1.7160 H       
  32 H32            0.3325    -1.6023    -1.4042 H       
  33 H33           -0.4430    -0.1592    -2.1000 H       
  34 H34            1.3659     5.6637    -2.2454 H       
  35 H35            1.5049     8.1216    -2.5757 H       
  36 H36            2.7950     9.4848    -0.9907 H       
  37 H37            3.9370     5.0614     1.6513 H       
  38 H38            4.4685     6.5947     2.0864 H       
@<TRIPOS>BOND
   1    1    2 1
   2    1   10 1
   3    1   11 2
   4    2    3 1
   5    2   12 1
   6    2   13 1
   7    3    4 1
   8    3   21 1
   9    3   22 1
  10    4    5 1
  11    4   23 1
  12    4   24 1
  13    5    6 ar
  14    5   10 ar
  15    6    7 ar
  16    6   25 1
  17    7    8 ar
  18    7   26 1
  19    8    9 ar
  20    8   15 1
  21    9   10 ar
  22    9   27 1
  23   12   28 1
  24   12   29 1
  25   12   30 1
  26   13   31 1
  27   13   32 1
  28   13   33 1
  29   14   15 ar
  30   14   19 ar
  31   14   20 1
  32   15   16 ar
  33   16   17 ar
  34   16   34 1
  35   17   18 ar
  36   17   35 1
  37   18   19 ar
  38   18   36 1
  39   20   37 1
  40   20   38 1

#	End of record

