#	Name: ASD03090698
#	Creating user name:	WinNT
#	Creation time:	15. 06. 2019 20:29

#	Modifying user name:	WinNT
#	Modification time:	15. 06. 2019 20:29

#	Program:	/corina/corina34_cracker 3.40 0067  02.08.2006

@<TRIPOS>MOLECULE
ASD03090698
  36   37    0    0    0
SMALL
NO_CHARGES


@<TRIPOS>ATOM
   1 N1            -0.1820     1.5467     0.2415 N.am    
   2 C2             0.2374     0.2844     0.4582 C.2     
   3 O3             1.4059     0.0677     0.7156 O.2     
   4 N4            -0.6383    -0.7378     0.3898 N.am    
   5 C5            -0.1853    -2.0564     0.5085 C.ar    
   6 C6            -0.9633    -3.0023     1.1614 C.ar    
   7 C7            -0.5115    -4.3074     1.2766 C.ar    
   8 C8             0.7172    -4.6655     0.7392 C.ar    
   9 C9             1.4904    -3.7225     0.0896 C.ar    
  10 C10            1.0409    -2.4217    -0.0319 C.ar    
  11 O11           -1.2707    -5.2358     1.9157 O.3     
  12 C12           -0.7427    -6.5612     1.9971 C.3     
  13 F13            0.4766    -6.5362     2.6826 F       
  14 F14           -1.6457    -7.3817     2.6815 F       
  15 F15           -0.5421    -7.0632     0.7068 F       
  16 C16            0.7017     2.6194     0.4215 C.ar    
  17 C17            0.5277     3.7917    -0.3021 C.ar    
  18 C18            1.3988     4.8481    -0.1242 C.ar    
  19 C19            2.4477     4.7385     0.7772 C.ar    
  20 C20            2.6221     3.5678     1.5002 C.ar    
  21 C21            1.7481     2.5124     1.3275 C.ar    
  22 C22           -0.6113     3.9107    -1.2816 C.3     
  23 O23            3.3055     5.7791     0.9515 O.3     
  24 H24           -1.0944     1.7125    -0.0430 H       
  25 H25           -1.5827    -0.5594     0.2582 H       
  26 H26           -1.9189    -2.7218     1.5792 H       
  27 H27            1.0694    -5.6825     0.8293 H       
  28 H28            2.4461    -4.0037    -0.3273 H       
  29 H29            1.6451    -1.6875    -0.5440 H       
  30 H30            1.2638     5.7598    -0.6872 H       
  31 H31            3.4388     3.4832     2.2018 H       
  32 H32            1.8811     1.6027     1.8941 H       
  33 H33           -1.4883     4.3102    -0.7723 H       
  34 H34           -0.3250     4.5811    -2.0920 H       
  35 H35           -0.8444     2.9270    -1.6890 H       
  36 H36            3.0362     6.3992     1.6428 H       
@<TRIPOS>BOND
   1    1    2 am
   2    1   16 1
   3    1   24 1
   4    2    3 2
   5    2    4 am
   6    4    5 1
   7    4   25 1
   8    5    6 ar
   9    5   10 ar
  10    6    7 ar
  11    6   26 1
  12    7    8 ar
  13    7   11 1
  14    8    9 ar
  15    8   27 1
  16    9   10 ar
  17    9   28 1
  18   10   29 1
  19   11   12 1
  20   12   13 1
  21   12   14 1
  22   12   15 1
  23   16   17 ar
  24   16   21 ar
  25   17   18 ar
  26   17   22 1
  27   18   19 ar
  28   18   30 1
  29   19   20 ar
  30   19   23 1
  31   20   21 ar
  32   20   31 1
  33   21   32 1
  34   22   33 1
  35   22   34 1
  36   22   35 1
  37   23   36 1

#	End of record

