#	Name: ASD05720315
#	Creating user name:	WinNT
#	Creation time:	15. 06. 2019 21:02

#	Modifying user name:	WinNT
#	Modification time:	15. 06. 2019 21:02

#	Program:	/corina/corina34_cracker 3.40 0067  02.08.2006

@<TRIPOS>MOLECULE
ASD05720315
  62   66    0    0    0
SMALL
NO_CHARGES


@<TRIPOS>ATOM
   1 N1            -0.1007     1.5932    -0.5609 N.am    
   2 C2            -0.1729     0.2755    -1.1971 C.3     
   3 C3             1.0554     2.2859    -0.5752 C.2     
   4 O4             2.0383     1.8172    -1.1160 O.2     
   5 N5             1.1218     3.4981     0.0101 N.am    
   6 C6             2.3451     4.1667     0.0945 C.ar    
   7 C7             2.3868     5.5528    -0.0081 C.ar    
   8 C8             3.5920     6.2150     0.0743 C.ar    
   9 C9             4.7721     5.4931     0.2614 C.ar    
  10 C10            4.7270     4.1017     0.3645 C.ar    
  11 C11            3.5183     3.4453     0.2866 C.ar    
  12 C12            7.4564     7.9352    -0.2967 C.ar    
  13 N13            6.2966     7.2947    -0.3713 N.ar    
  14 C14            6.0681     6.2013     0.3498 C.ar    
  15 C15            7.0902     5.7327     1.2014 C.ar    
  16 C16            8.3049     6.4473     1.2462 C.ar    
  17 N17            8.4417     7.5317     0.4875 N.ar    
  18 N18            9.1075     5.7927     2.1336 N.pl3   
  19 N19            8.4024     4.6897     2.6314 N.2     
  20 C20            7.2179     4.6450     2.0913 C.2     
  21 N21            7.6440     9.0654    -1.0736 N.3     
  22 C22            6.4492     9.3548    -1.8799 C.3     
  23 C23            6.6772    10.6422    -2.6763 C.3     
  24 O24            7.8511    10.4979    -3.4804 O.3     
  25 C25            9.0337    10.2161    -2.7272 C.3     
  26 C26            8.8297     8.9243    -1.9313 C.3     
  27 C27           10.4722     6.1771     2.5025 C.3     
  28 C28           10.5356     6.4527     4.0061 C.3     
  29 C29           10.1362     5.1907     4.7733 C.3     
  30 C30           11.0987     4.0543     4.4221 C.3     
  31 C31           11.0353     3.7787     2.9185 C.3     
  32 C32           11.4347     5.0407     2.1513 C.3     
  33 O33           10.7257     2.8756     5.1386 O.3     
  34 H34           -0.8859     1.9688    -0.1329 H       
  35 H35           -1.1794    -0.1276    -1.0847 H       
  36 H36            0.0643     0.3701    -2.2568 H       
  37 H37            0.5426    -0.3965    -0.7232 H       
  38 H38            0.3201     3.9062     0.3728 H       
  39 H39            1.4734     6.1107    -0.1528 H       
  40 H40            3.6238     7.2915    -0.0061 H       
  41 H41            5.6384     3.5405     0.5089 H       
  42 H42            3.4823     2.3692     0.3703 H       
  43 H43            6.4612     3.9007     2.2907 H       
  44 H44            6.2654     8.5292    -2.5674 H       
  45 H45            5.5886     9.4807    -1.2229 H       
  46 H46            5.8168    10.8300    -3.3187 H       
  47 H47            6.8077    11.4775    -1.9883 H       
  48 H48            9.8777    10.0956    -3.4064 H       
  49 H49            9.2328    11.0390    -2.0407 H       
  50 H50            9.7066     8.7360    -1.3120 H       
  51 H51            8.6839     8.0918    -2.6197 H       
  52 H52           10.7568     7.0762     1.9559 H       
  53 H53           11.5510     6.7387     4.2806 H       
  54 H54            9.8499     7.2623     4.2563 H       
  55 H55           10.1814     5.3871     5.8445 H       
  56 H56            9.1209     4.9047     4.4988 H       
  57 H57           12.1141     4.3403     4.6966 H       
  58 H58           11.7210     2.9691     2.6683 H       
  59 H59           10.0199     3.4927     2.6440 H       
  60 H60           11.3895     4.8443     1.0801 H       
  61 H61           12.4501     5.3267     2.4258 H       
  62 H62           11.2940     2.1129     4.9642 H       
@<TRIPOS>BOND
   1    1    2 1
   2    1    3 am
   3    1   34 1
   4    2   35 1
   5    2   36 1
   6    2   37 1
   7    3    4 2
   8    3    5 am
   9    5    6 1
  10    5   38 1
  11    6    7 ar
  12    6   11 ar
  13    7    8 ar
  14    7   39 1
  15    8    9 ar
  16    8   40 1
  17    9   10 ar
  18    9   14 1
  19   10   11 ar
  20   10   41 1
  21   11   42 1
  22   12   13 ar
  23   12   17 ar
  24   12   21 1
  25   13   14 ar
  26   14   15 ar
  27   15   16 ar
  28   15   20 1
  29   16   17 ar
  30   16   18 1
  31   18   19 1
  32   18   27 1
  33   19   20 2
  34   20   43 1
  35   21   22 1
  36   21   26 1
  37   22   23 1
  38   22   44 1
  39   22   45 1
  40   23   24 1
  41   23   46 1
  42   23   47 1
  43   24   25 1
  44   25   26 1
  45   25   48 1
  46   25   49 1
  47   26   50 1
  48   26   51 1
  49   27   28 1
  50   27   32 1
  51   27   52 1
  52   28   29 1
  53   28   53 1
  54   28   54 1
  55   29   30 1
  56   29   55 1
  57   29   56 1
  58   30   31 1
  59   30   33 1
  60   30   57 1
  61   31   32 1
  62   31   58 1
  63   31   59 1
  64   32   60 1
  65   32   61 1
  66   33   62 1

#	End of record

