#	Name: ASD08070261
#	Creating user name:	WinNT
#	Creation time:	15. 06. 2019 21:14

#	Modifying user name:	WinNT
#	Modification time:	15. 06. 2019 21:14

#	Program:	/corina/corina34_cracker 3.40 0067  02.08.2006

@<TRIPOS>MOLECULE
ASD08070261
  30   31    0    0    0
SMALL
NO_CHARGES


@<TRIPOS>ATOM
   1 C1            -0.0164     1.3559     0.0095 C.2     
   2 C2             0.0021    -0.0041     0.0020 C.2     
   3 C3             1.3382    -0.5521    -0.0137 C.2     
   4 C4             2.2833     0.3805    -0.0177 C.2     
   5 S5             1.5684     1.9832    -0.0023 S.3     
   6 C6            -1.2147    -0.8323     0.0092 C.2     
   7 O7            -1.1248    -2.0453     0.0023 O.2     
   8 N8            -2.4285    -0.2465     0.0234 N.am    
   9 C9            -3.6395    -1.0708     0.0306 C.3     
  10 C10           -4.8542    -0.1789     0.0463 C.ar    
  11 C11           -5.4216     0.2355    -1.1445 C.ar    
  12 C12           -6.5350     1.0531    -1.1327 C.ar    
  13 C13           -7.0839     1.4583     0.0753 C.ar    
  14 C14           -6.5127     1.0411     1.2687 C.ar    
  15 C15           -5.4026     0.2189     1.2516 C.ar    
  16 O16           -8.1789     2.2630     0.0895 O.3     
  17 C17           -8.6900     2.6406     1.3695 C.3     
  18 F18           -7.7041     3.3348     2.0790 F       
  19 F19           -9.8093     3.4627     1.2007 F       
  20 F20           -9.0569     1.4938     2.0819 F       
  21 H21           -0.9137     1.9569     0.0172 H       
  22 H22            1.5472    -1.6116    -0.0210 H       
  23 H23            3.3446     0.1805    -0.0289 H       
  24 H24           -2.5001     0.7208     0.0289 H       
  25 H25           -3.6591    -1.6956    -0.8624 H       
  26 H26           -3.6425    -1.7045     0.9174 H       
  27 H27           -4.9937    -0.0799    -2.0846 H       
  28 H28           -6.9776     1.3769    -2.0631 H       
  29 H29           -6.9381     1.3552     2.2104 H       
  30 H30           -4.9604    -0.1101     2.1804 H       
@<TRIPOS>BOND
   1    1    2 2
   2    1    5 1
   3    1   21 1
   4    2    3 1
   5    2    6 1
   6    3    4 2
   7    3   22 1
   8    4    5 1
   9    4   23 1
  10    6    7 2
  11    6    8 am
  12    8    9 1
  13    8   24 1
  14    9   10 1
  15    9   25 1
  16    9   26 1
  17   10   11 ar
  18   10   15 ar
  19   11   12 ar
  20   11   27 1
  21   12   13 ar
  22   12   28 1
  23   13   14 ar
  24   13   16 1
  25   14   15 ar
  26   14   29 1
  27   15   30 1
  28   16   17 1
  29   17   18 1
  30   17   19 1
  31   17   20 1

#	End of record

