#	Name: ASD01810296
#	Creating user name:	WinNT
#	Creation time:	15. 06. 2019 19:24

#	Modifying user name:	WinNT
#	Modification time:	15. 06. 2019 19:24

#	Program:	/corina/corina34_cracker 3.40 0067  02.08.2006

@<TRIPOS>MOLECULE
ASD01810296
  27   28    0    0    0
SMALL
NO_CHARGES


@<TRIPOS>ATOM
   1 N1            -0.0161     1.3349     0.0094 N.pl3   
   2 C2             0.0021    -0.0041     0.0020 C.2     
   3 C3             1.1800    -0.7235    -0.0127 C.2     
   4 C4             2.4584     0.0058    -0.0210 C.2     
   5 C5             2.3933     1.4792    -0.0130 C.ar    
   6 C6             3.5540     2.2528    -0.0195 C.ar    
   7 C7             3.4562     3.6265    -0.0112 C.ar    
   8 C8             2.2112     4.2396     0.0036 C.ar    
   9 C9             1.0568     3.4882     0.0101 C.ar    
  10 C10            1.1317     2.0975     0.0025 C.ar    
  11 C11            1.1580    -2.1931    -0.0194 C.2     
  12 O12            0.0963    -2.7852    -0.0120 O.2     
  13 O13            2.3151    -2.8845    -0.0338 O.3     
  14 O14            3.5253    -0.5827    -0.0336 O.2     
  15 C15            2.2175    -4.3332    -0.0397 C.3     
  16 C16            3.6223    -4.9390    -0.0561 C.3     
  17 H17           -0.8740     1.7875     0.0158 H       
  18 H18           -0.9362    -0.5389     0.0081 H       
  19 H19            4.5237     1.7774    -0.0306 H       
  20 H20            4.3523     4.2293    -0.0158 H       
  21 H21            2.1468     5.3177     0.0103 H       
  22 H22            0.0940     3.9773     0.0213 H       
  23 H23            1.6889    -4.6654     0.8538 H       
  24 H24            1.6718    -4.6569    -0.9261 H       
  25 H25            4.1509    -4.6068    -0.9496 H       
  26 H26            4.1679    -4.6153     0.8302 H       
  27 H27            3.5490    -6.0265    -0.0605 H       
@<TRIPOS>BOND
   1    1    2 1
   2    1   10 1
   3    1   17 1
   4    2    3 2
   5    2   18 1
   6    3    4 1
   7    3   11 1
   8    4    5 1
   9    4   14 2
  10    5    6 ar
  11    5   10 ar
  12    6    7 ar
  13    6   19 1
  14    7    8 ar
  15    7   20 1
  16    8    9 ar
  17    8   21 1
  18    9   10 ar
  19    9   22 1
  20   11   12 2
  21   11   13 1
  22   13   15 1
  23   15   16 1
  24   15   23 1
  25   15   24 1
  26   16   25 1
  27   16   26 1
  28   16   27 1

#	End of record

