#	Name: ASD01208147
#	Creating user name:	WinNT
#	Creation time:	15. 06. 2019 19:09

#	Modifying user name:	WinNT
#	Modification time:	15. 06. 2019 19:09

#	Program:	/corina/corina34_cracker 3.40 0067  02.08.2006

@<TRIPOS>MOLECULE
ASD01208147
  62   65    0    0    0
SMALL
NO_CHARGES


@<TRIPOS>ATOM
   1 C1            -1.5290     1.7252     1.2765 C.3     
   2 O2            -1.3218     0.3717     0.8677 O.3     
   3 O3             0.7453     1.9954     2.1482 O.3     
   4 C4             1.4464     3.0512     2.6147 C.2     
   5 N5             0.8760     4.1987     2.3885 N.2     
   6 C6            -0.3838     3.9568     1.6588 C.3     
   7 C7            -0.2085     2.4928     1.1873 C.3     
   8 N8             3.3862     1.7373     3.5820 N.pl3   
   9 C9             2.7330     2.9167     3.3126 C.2     
  10 C10            3.4954     3.9507     3.8112 C.2     
  11 C11            4.6326     3.3895     4.3942 C.2     
  12 C12            4.5473     2.0239     4.2429 C.2     
  13 C13            5.5413     1.0368     4.7146 C.ar    
  14 C14            6.6910     1.4648     5.3801 C.ar    
  15 C15            7.6198     0.5368     5.8203 C.ar    
  16 C16            7.4090    -0.8170     5.6003 C.ar    
  17 C17            6.2674    -1.2469     4.9391 C.ar    
  18 C18            5.3301    -0.3255     4.5009 C.ar    
  19 O19            6.0659    -2.5737     4.7258 O.3     
  20 C20            6.0964    -4.4062     3.2004 C.ar    
  21 C21            6.3076    -3.0637     3.4815 C.ar    
  22 C22            6.7699    -2.2267     2.4710 C.ar    
  23 C23            7.0015    -2.7722     1.2184 C.ar    
  24 C24            6.7676    -4.1192     1.0153 C.ar    
  25 N25            6.3291    -4.8856     1.9949 N.ar    
  26 S26            7.0586    -4.8219    -0.5741 S.o2    
  27 O27            6.1891    -5.9446    -0.6255 O.2     
  28 O28            6.9021    -3.7324    -1.4729 O.2     
  29 C29            8.7902    -5.3597    -0.5211 C.3     
  30 O30            8.7397     0.9525     6.4684 O.3     
  31 C31            9.6101    -0.0612     6.9751 C.3     
  32 C32           10.4324     0.5054     8.1343 C.3     
  33 C33           10.5511    -0.5281     5.8627 C.3     
  34 O34           11.2949     1.5356     7.6477 O.3     
  35 C35           12.1113     2.1346     8.6561 C.3     
  36 H36           -2.2660     2.1931     0.6239 H       
  37 H37           -1.8908     1.7429     2.3046 H       
  38 H38           -2.1188    -0.1750     0.8992 H       
  39 H39           -1.2426     4.0513     2.3233 H       
  40 H40           -0.4761     4.6313     0.8075 H       
  41 H41            0.1976     2.4532     0.1766 H       
  42 H42            3.0732     0.8500     3.3461 H       
  43 H43            3.2568     5.0028     3.7599 H       
  44 H44            5.4344     3.9289     4.8763 H       
  45 H45            6.8563     2.5182     5.5512 H       
  46 H46            8.1358    -1.5380     5.9443 H       
  47 H47            4.4394    -0.6611     3.9906 H       
  48 H48            5.7419    -5.0658     3.9787 H       
  49 H49            6.9438    -1.1773     2.6581 H       
  50 H50            7.3602    -2.1521     0.4102 H       
  51 H51            8.9193    -6.0909     0.2768 H       
  52 H52            9.0595    -5.8121    -1.4755 H       
  53 H53            9.4323    -4.4992    -0.3329 H       
  54 H54            9.0179    -0.9054     7.3283 H       
  55 H55            9.7617     0.9187     8.8876 H       
  56 H56           11.0311    -0.2902     8.5780 H       
  57 H57           11.1433     0.3161     5.5096 H       
  58 H58           11.2151    -1.3014     6.2492 H       
  59 H59            9.9653    -0.9317     5.0369 H       
  60 H60           12.7364     2.9062     8.2065 H       
  61 H61           11.4754     2.5817     9.4202 H       
  62 H62           12.7447     1.3729     9.1106 H       
@<TRIPOS>BOND
   1    1    2 1
   2    1    7 1
   3    1   36 1
   4    1   37 1
   5    2   38 1
   6    3    4 1
   7    3    7 1
   8    4    5 2
   9    4    9 1
  10    5    6 1
  11    6    7 1
  12    6   39 1
  13    6   40 1
  14    7   41 1
  15    8    9 1
  16    8   12 1
  17    8   42 1
  18    9   10 2
  19   10   11 1
  20   10   43 1
  21   11   12 2
  22   11   44 1
  23   12   13 1
  24   13   14 ar
  25   13   18 ar
  26   14   15 ar
  27   14   45 1
  28   15   16 ar
  29   15   30 1
  30   16   17 ar
  31   16   46 1
  32   17   18 ar
  33   17   19 1
  34   18   47 1
  35   19   21 1
  36   20   21 ar
  37   20   25 ar
  38   20   48 1
  39   21   22 ar
  40   22   23 ar
  41   22   49 1
  42   23   24 ar
  43   23   50 1
  44   24   25 ar
  45   24   26 1
  46   26   27 2
  47   26   28 2
  48   26   29 1
  49   29   51 1
  50   29   52 1
  51   29   53 1
  52   30   31 1
  53   31   32 1
  54   31   33 1
  55   31   54 1
  56   32   34 1
  57   32   55 1
  58   32   56 1
  59   33   57 1
  60   33   58 1
  61   33   59 1
  62   34   35 1
  63   35   60 1
  64   35   61 1
  65   35   62 1

#	End of record

