#	Name: ASD01190170
#	Creating user name:	WinNT
#	Creation time:	15. 06. 2019 19:07

#	Modifying user name:	WinNT
#	Modification time:	15. 06. 2019 19:07

#	Program:	/corina/corina34_cracker 3.40 0067  02.08.2006

@<TRIPOS>MOLECULE
ASD01190170
  48   52    0    0    0
SMALL
NO_CHARGES


@<TRIPOS>ATOM
   1 C1            -0.0187     1.5258     0.0104 C.3     
   2 C2             0.0086     0.0364     0.3596 C.3     
   3 N3             5.2775     3.3965    -0.2468 N.pl3   
   4 N4             5.6908     2.7157    -1.3967 N.2     
   5 C5             4.7134     1.9930    -1.8648 C.2     
   6 C6             3.5589     2.1829    -0.9916 C.ar    
   7 C7             2.2527     1.6817    -0.9838 C.ar    
   8 C8             1.3884     2.0653     0.0006 C.ar    
   9 C9             1.7936     2.9488     0.9933 C.ar    
  10 C10            3.0638     3.4523     1.0060 C.ar    
  11 C11            3.9672     3.0786     0.0152 C.ar    
  12 C12            8.1826     4.8856     1.4441 C.ar    
  13 C13            7.4332     4.0117     0.6838 C.ar    
  14 C14            6.0713     4.2565     0.5156 C.ar    
  15 C15            5.5222     5.3821     1.1277 C.ar    
  16 C16            6.3402     6.2068     1.8720 C.ar    
  17 N17            7.6256     5.9408     2.0077 N.ar    
  18 N18           -1.5988     1.2906    -3.3069 N.pl3   
  19 C19           -1.1143     0.7437    -2.1500 C.2     
  20 C20           -0.6373     1.7113    -1.3511 C.2     
  21 C21           -0.8323     2.9817    -2.0539 C.ar    
  22 C22           -0.5476     4.3139    -1.7476 C.ar    
  23 C23           -0.8626     5.2977    -2.6418 C.ar    
  24 C24           -1.4638     4.9836    -3.8531 C.ar    
  25 C25           -1.7538     3.6761    -4.1754 C.ar    
  26 C26           -1.4413     2.6582    -3.2800 C.ar    
  27 C27           -2.1911     0.5333    -4.4123 C.3     
  28 F28            0.5830    -0.1358     1.6236 F       
  29 F29           -1.2976    -0.4645     0.3687 F       
  30 F30            0.7655    -0.6524    -0.5943 F       
  31 O31           -0.7918     2.2293     0.9848 O.3     
  32 H32            4.7504     1.3652    -2.7428 H       
  33 H33            1.9299     0.9952    -1.7526 H       
  34 H34            1.0960     3.2415     1.7641 H       
  35 H35            3.3661     4.1389     1.7829 H       
  36 H36            9.2376     4.7013     1.5835 H       
  37 H37            7.8954     3.1501     0.2250 H       
  38 H38            4.4710     5.6057     1.0203 H       
  39 H39            5.9234     7.0813     2.3495 H       
  40 H40           -1.1158    -0.3103    -1.9144 H       
  41 H41           -0.0804     4.5658    -0.8071 H       
  42 H42           -0.6426     6.3280    -2.4043 H       
  43 H43           -1.7068     5.7724    -4.5497 H       
  44 H44           -2.2219     3.4420    -5.1201 H       
  45 H45           -3.2655     0.4397    -4.2540 H       
  46 H46           -2.0063     1.0559    -5.3509 H       
  47 H47           -1.7422    -0.4590    -4.4545 H       
  48 H48           -0.8523     3.1813     0.8262 H       
@<TRIPOS>BOND
   1    1    2 1
   2    1    8 1
   3    1   20 1
   4    1   31 1
   5    2   28 1
   6    2   29 1
   7    2   30 1
   8    3    4 1
   9    3   11 1
  10    3   14 1
  11    4    5 2
  12    5    6 1
  13    5   32 1
  14    6    7 ar
  15    6   11 ar
  16    7    8 ar
  17    7   33 1
  18    8    9 ar
  19    9   10 ar
  20    9   34 1
  21   10   11 ar
  22   10   35 1
  23   12   13 ar
  24   12   17 ar
  25   12   36 1
  26   13   14 ar
  27   13   37 1
  28   14   15 ar
  29   15   16 ar
  30   15   38 1
  31   16   17 ar
  32   16   39 1
  33   18   19 1
  34   18   26 1
  35   18   27 1
  36   19   20 2
  37   19   40 1
  38   20   21 1
  39   21   22 ar
  40   21   26 ar
  41   22   23 ar
  42   22   41 1
  43   23   24 ar
  44   23   42 1
  45   24   25 ar
  46   24   43 1
  47   25   26 ar
  48   25   44 1
  49   27   45 1
  50   27   46 1
  51   27   47 1
  52   31   48 1

#	End of record

