#	Name: ASD01420100
#	Creating user name:	WinNT
#	Creation time:	15. 06. 2019 19:20

#	Modifying user name:	WinNT
#	Modification time:	15. 06. 2019 19:20

#	Program:	/corina/corina34_cracker 3.40 0067  02.08.2006

@<TRIPOS>MOLECULE
ASD01420100
  47   49    0    0    0
SMALL
NO_CHARGES


@<TRIPOS>ATOM
   1 C1            -0.0120     1.2713     0.9145 C.3     
   2 N2            -0.0025    -0.1094     0.4213 N.am    
   3 C3             1.3895    -0.5679     0.4638 C.3     
   4 C4             2.2300     0.5661     0.9948 C.ar    
   5 C5             3.5887     0.6566     1.2286 C.ar    
   6 C6             4.1324     1.8388     1.7324 C.ar    
   7 C7             3.2964     2.9254     1.9975 C.ar    
   8 C8             1.9426     2.8223     1.7600 C.ar    
   9 C9             1.4079     1.6454     1.2594 C.ar    
  10 C10            5.5845     1.9401     1.9844 C.2     
  11 O11            6.3086     0.9927     1.7529 O.2     
  12 O12            6.1055     3.0832     2.4708 O.3     
  13 C13           -1.0697    -0.8212     0.0079 C.2     
  14 C14           -2.4248    -0.2578     0.1345 C.ar    
  15 C15           -3.3417    -0.3840    -0.9204 C.ar    
  16 C16           -4.6130     0.1479    -0.7929 C.ar    
  17 C17           -4.9777     0.8031     0.3742 C.ar    
  18 C18           -4.0695     0.9294     1.4208 C.ar    
  19 C19           -2.8046     0.3999     1.3084 C.ar    
  20 O20           -0.9138    -1.9288    -0.4698 O.2     
  21 C21           -4.4748     1.6438     2.6843 C.3     
  22 C22           -4.3616     0.6848     3.8711 C.3     
  23 C23           -3.5536     2.8445     2.9092 C.3     
  24 O24           -6.2252     1.3234     0.4955 O.3     
  25 O25           -2.9830    -1.0247    -2.0611 O.3     
  26 C26            7.5400     3.1112     2.6939 C.3     
  27 H27           -0.3919     1.9376     0.1400 H       
  28 H28           -0.6389     1.3416     1.8035 H       
  29 H29            1.4741    -1.4311     1.1240 H       
  30 H30            1.7211    -0.8351    -0.5395 H       
  31 H31            4.2298    -0.1876     1.0218 H       
  32 H32            3.7093     3.8438     2.3879 H       
  33 H33            1.2954     3.6623     1.9652 H       
  34 H34           -5.3214     0.0531    -1.6026 H       
  35 H35           -2.1042     0.4958     2.1248 H       
  36 H36           -5.5048     1.9883     2.5925 H       
  37 H37           -3.3316     0.3403     3.9629 H       
  38 H38           -4.6547     1.2015     4.7850 H       
  39 H39           -5.0179    -0.1706     3.7109 H       
  40 H40           -2.5235     2.5000     3.0010 H       
  41 H41           -3.6342     3.5277     2.0637 H       
  42 H42           -3.8467     3.3612     3.8231 H       
  43 H43           -6.8724     0.7103     0.8703 H       
  44 H44           -3.1643    -1.9745    -2.0524 H       
  45 H45            7.8112     2.3370     3.4116 H       
  46 H46            8.0578     2.9309     1.7519 H       
  47 H47            7.8277     4.0868     3.0858 H       
@<TRIPOS>BOND
   1    1    2 1
   2    1    9 1
   3    1   27 1
   4    1   28 1
   5    2    3 1
   6    2   13 am
   7    3    4 1
   8    3   29 1
   9    3   30 1
  10    4    5 ar
  11    4    9 ar
  12    5    6 ar
  13    5   31 1
  14    6    7 ar
  15    6   10 1
  16    7    8 ar
  17    7   32 1
  18    8    9 ar
  19    8   33 1
  20   10   11 2
  21   10   12 1
  22   12   26 1
  23   13   14 1
  24   13   20 2
  25   14   15 ar
  26   14   19 ar
  27   15   16 ar
  28   15   25 1
  29   16   17 ar
  30   16   34 1
  31   17   18 ar
  32   17   24 1
  33   18   19 ar
  34   18   21 1
  35   19   35 1
  36   21   22 1
  37   21   23 1
  38   21   36 1
  39   22   37 1
  40   22   38 1
  41   22   39 1
  42   23   40 1
  43   23   41 1
  44   23   42 1
  45   24   43 1
  46   25   44 1
  47   26   45 1
  48   26   46 1
  49   26   47 1

#	End of record

