#	Name: ASD08170340
#	Creating user name:	WinNT
#	Creation time:	15. 06. 2019 21:17

#	Modifying user name:	WinNT
#	Modification time:	15. 06. 2019 21:17

#	Program:	/corina/corina34_cracker 3.40 0067  02.08.2006

@<TRIPOS>MOLECULE
ASD08170340
  72   75    0    0    0
SMALL
NO_CHARGES


@<TRIPOS>ATOM
   1 C1            -0.0167     1.3779     0.0096 C.ar    
   2 C2             0.0021    -0.0041     0.0020 C.ar    
   3 C3             1.2086    -0.6790    -0.0132 C.ar    
   4 C4             2.3961     0.0283    -0.0212 C.ar    
   5 C5             2.3773     1.4107    -0.0145 C.ar    
   6 C6             1.1711     2.0854     0.0021 C.ar    
   7 C7             1.2291    -2.1858    -0.0205 C.3     
   8 C8             1.2217    -2.6814    -1.4436 C.2     
   9 N9             1.2373    -4.0052    -1.6963 N.am    
  10 C10            1.2305    -4.4626    -3.0097 C.2     
  11 S11            1.2480    -6.1054    -3.4950 S.3     
  12 C12            1.2243    -5.5868    -5.1809 C.2     
  13 N13            1.2066    -4.2918    -5.1946 N.2     
  14 N14            1.2041    -3.7150    -4.0715 N.2     
  15 O15            1.2019    -1.8890    -2.3616 O.2     
  16 S16            3.8911     2.3124    -0.0236 S.o2    
  17 C17            4.2645     2.5523    -1.7825 C.3     
  18 C18            1.2251    -6.4886    -6.3883 C.3     
  19 C19            2.6677    -6.7737    -6.8110 C.3     
  20 S20            2.6686    -7.8591    -8.2644 S.3     
  21 C21            4.4361    -8.0786    -8.6086 C.3     
  22 C22            4.6093    -8.9859    -9.8283 C.3     
  23 C23            6.0776    -9.1683   -10.1143 C.2     
  24 N24            6.8312   -10.1019    -9.6291 N.2     
  25 S25            7.0258    -8.1793   -11.1412 S.3     
  26 C26            8.3957    -9.1485   -10.8013 C.2     
  27 N27            8.0432   -10.0910    -9.9875 N.2     
  28 C28            9.7797    -8.9418   -11.3607 C.3     
  29 C29            9.9211    -9.7114   -12.6487 C.2     
  30 O30            8.9937   -10.3608   -13.0689 O.2     
  31 C31           11.2197    -9.6707   -13.4121 C.3     
  32 C32           11.0996   -10.5172   -14.6531 C.ar    
  33 C33           10.6549    -9.9529   -15.8344 C.ar    
  34 C34           11.4394   -11.8563   -14.6119 C.ar    
  35 C35           11.3292   -12.6328   -15.7504 C.ar    
  36 C36           10.8788   -12.0702   -16.9298 C.ar    
  37 C37           10.5446   -10.7293   -16.9726 C.ar    
  38 S38            9.9705   -10.0119   -18.4761 S.o2    
  39 C39            8.1700   -10.2255   -18.4209 C.3     
  40 O40            3.5645     3.5516     0.5904 O.2     
  41 O41            4.8304     1.4262     0.5692 O.2     
  42 O42           10.3134    -8.6376   -18.3620 O.2     
  43 O43           10.5384   -10.8268   -19.4923 O.2     
  44 H44           -0.9592     1.9051     0.0170 H       
  45 H45           -0.9258    -0.5567     0.0083 H       
  46 H46            3.3386    -0.4989    -0.0324 H       
  47 H47            1.1565     3.1653     0.0077 H       
  48 H48            2.1290    -2.5394     0.4828 H       
  49 H49            0.3493    -2.5636     0.5004 H       
  50 H50            1.2531    -4.6389    -0.9621 H       
  51 H51            3.4553     3.1110    -2.2528 H       
  52 H52            5.1965     3.1084    -1.8835 H       
  53 H53            4.3660     1.5817    -2.2680 H       
  54 H54            0.7267    -7.4262    -6.1419 H       
  55 H55            0.6964    -6.0003    -7.2068 H       
  56 H56            3.1661    -5.8361    -7.0574 H       
  57 H57            3.1964    -7.2620    -5.9924 H       
  58 H58            4.8902    -7.1085    -8.8100 H       
  59 H59            4.9205    -8.5344    -7.7451 H       
  60 H60            4.1551    -9.9561    -9.6269 H       
  61 H61            4.1248    -8.5302   -10.6919 H       
  62 H62            9.9395    -7.8807   -11.5521 H       
  63 H63           10.5187    -9.2967   -10.6424 H       
  64 H64           11.4432    -8.6419   -13.6943 H       
  65 H65           12.0224   -10.0579   -12.7845 H       
  66 H66           10.3932    -8.9056   -15.8676 H       
  67 H67           11.7913   -12.2959   -13.6903 H       
  68 H68           11.5953   -13.6790   -15.7183 H       
  69 H69           10.7930   -12.6767   -17.8192 H       
  70 H70            7.7699    -9.7124   -17.5464 H       
  71 H71            7.7264    -9.8050   -19.3234 H       
  72 H72            7.9317   -11.2874   -18.3596 H       
@<TRIPOS>BOND
   1    1    2 ar
   2    1    6 ar
   3    1   44 1
   4    2    3 ar
   5    2   45 1
   6    3    4 ar
   7    3    7 1
   8    4    5 ar
   9    4   46 1
  10    5    6 ar
  11    5   16 1
  12    6   47 1
  13    7    8 1
  14    7   48 1
  15    7   49 1
  16    8    9 am
  17    8   15 2
  18    9   10 1
  19    9   50 1
  20   10   11 1
  21   10   14 2
  22   11   12 1
  23   12   13 2
  24   12   18 1
  25   13   14 1
  26   16   17 1
  27   16   40 2
  28   16   41 2
  29   17   51 1
  30   17   52 1
  31   17   53 1
  32   18   19 1
  33   18   54 1
  34   18   55 1
  35   19   20 1
  36   19   56 1
  37   19   57 1
  38   20   21 1
  39   21   22 1
  40   21   58 1
  41   21   59 1
  42   22   23 1
  43   22   60 1
  44   22   61 1
  45   23   24 2
  46   23   25 1
  47   24   27 1
  48   25   26 1
  49   26   27 2
  50   26   28 1
  51   28   29 1
  52   28   62 1
  53   28   63 1
  54   29   30 2
  55   29   31 1
  56   31   32 1
  57   31   64 1
  58   31   65 1
  59   32   33 ar
  60   32   34 ar
  61   33   37 ar
  62   33   66 1
  63   34   35 ar
  64   34   67 1
  65   35   36 ar
  66   35   68 1
  67   36   37 ar
  68   36   69 1
  69   37   38 1
  70   38   39 1
  71   38   42 2
  72   38   43 2
  73   39   70 1
  74   39   71 1
  75   39   72 1

#	End of record

