#	Name: ASD01915270
#	Creating user name:	WinNT
#	Creation time:	15. 06. 2019 20:05

#	Modifying user name:	WinNT
#	Modification time:	15. 06. 2019 20:05

#	Program:	/corina/corina34_cracker 3.40 0067  02.08.2006

@<TRIPOS>MOLECULE
ASD01915270
  45   47    0    0    0
SMALL
NO_CHARGES


@<TRIPOS>ATOM
   1 C1             0.0795     1.3774     0.1567 C.ar    
   2 C2             0.0905    -0.0089     0.1350 C.ar    
   3 C3            -1.1099    -0.6925     0.1753 C.ar    
   4 N4            -2.2553    -0.0416     0.2333 N.ar    
   5 C5            -2.3037     1.2760     0.2554 C.ar    
   6 C6            -1.1437     2.0267     0.2237 C.ar    
   7 C7             1.3669     2.1598     0.1147 C.3     
   8 N8             1.7272     2.4351    -1.2825 N.3     
   9 C9             2.9800     3.1981    -1.3625 C.3     
  10 C10            3.3166     3.4610    -2.8078 C.2     
  11 N11            4.4307     4.1495    -3.1257 N.am    
  12 C12            4.7778     4.4172    -4.5297 C.3     
  13 C13            5.0548     5.9163    -4.6854 C.3     
  14 N14            6.0688     6.3280    -3.7055 N.3     
  15 C15            5.5868     6.1430    -2.3302 C.3     
  16 C16            5.3285     4.6585    -2.0777 C.3     
  17 C17            6.4679     7.6503    -3.9229 C.ar    
  18 C18            6.1638     8.6311    -2.9887 C.ar    
  19 C19            6.5594     9.9370    -3.2060 C.ar    
  20 C20            7.2576    10.2682    -4.3535 C.ar    
  21 C21            7.5621     9.2931    -5.2873 C.ar    
  22 C22            7.1750     7.9842    -5.0723 C.ar    
  23 Cl23           7.7522    11.9103    -4.6230 Cl      
  24 Cl24           7.5570     6.7613    -6.2437 Cl      
  25 O25            2.5849     3.0530    -3.6847 O.2     
  26 H26            1.0253    -0.5477     0.0869 H       
  27 H27           -1.1100    -1.7724     0.1588 H       
  28 H28           -3.2607     1.7743     0.3028 H       
  29 H29           -1.1898     3.1055     0.2424 H       
  30 H30            1.2375     3.1011     0.6489 H       
  31 H31            2.1599     1.5800     0.5870 H       
  32 H32            1.7898     1.5804    -1.8150 H       
  33 H33            2.8619     4.1466    -0.8386 H       
  34 H34            3.7842     2.6255    -0.9005 H       
  35 H35            5.6683     3.8502    -4.8012 H       
  36 H36            3.9467     4.1295    -5.1736 H       
  37 H37            5.4202     6.1159    -5.6927 H       
  38 H38            4.1352     6.4758    -4.5141 H       
  39 H39            6.3381     6.5071    -1.6294 H       
  40 H40            4.6598     6.6993    -2.1917 H       
  41 H41            4.8636     4.5287    -1.1004 H       
  42 H42            6.2706     4.1116    -2.1137 H       
  43 H43            5.6182     8.3737    -2.0929 H       
  44 H44            6.3229    10.7001    -2.4793 H       
  45 H45            8.1066     9.5546    -6.1826 H       
@<TRIPOS>BOND
   1    1    2 ar
   2    1    7 1
   3    1    6 ar
   4    2    3 ar
   5    2   26 1
   6    3    4 ar
   7    3   27 1
   8    4    5 ar
   9    5    6 ar
  10    5   28 1
  11    6   29 1
  12    7    8 1
  13    7   30 1
  14    7   31 1
  15    8    9 1
  16    8   32 1
  17    9   10 1
  18    9   33 1
  19    9   34 1
  20   10   11 am
  21   10   25 2
  22   11   12 1
  23   11   16 1
  24   12   13 1
  25   12   35 1
  26   12   36 1
  27   13   14 1
  28   13   37 1
  29   13   38 1
  30   14   15 1
  31   14   17 1
  32   15   16 1
  33   15   39 1
  34   15   40 1
  35   16   41 1
  36   16   42 1
  37   17   18 ar
  38   17   22 ar
  39   18   19 ar
  40   18   43 1
  41   19   20 ar
  42   19   44 1
  43   20   21 ar
  44   20   23 1
  45   21   22 ar
  46   21   45 1
  47   22   24 1

#	End of record

