#	Name: ASD01411014
#	Creating user name:	WinNT
#	Creation time:	15. 06. 2019 19:19

#	Modifying user name:	WinNT
#	Modification time:	15. 06. 2019 19:19

#	Program:	/corina/corina34_cracker 3.40 0067  02.08.2006

@<TRIPOS>MOLECULE
ASD01411014
  71   77    0    0    0
SMALL
NO_CHARGES


@<TRIPOS>ATOM
   1 C1            -0.0646     1.3322     0.0340 C.ar    
   2 C2             0.0604    -0.0703     0.0033 C.ar    
   3 C3            -1.0754    -0.8729     0.0170 C.ar    
   4 C4            -2.3154    -0.3055     0.0598 C.ar    
   5 C5            -2.4589     1.0885     0.0908 C.ar    
   6 C6            -1.3352     1.9080     0.0829 C.ar    
   7 N7             1.1892     1.8461     0.0120 N.2     
   8 C8             2.0621     0.8710    -0.0295 C.2     
   9 N9             1.4118    -0.3341    -0.0365 N.pl3   
  10 C10            2.0373    -1.6582    -0.0780 C.3     
  11 C11            1.7269    -2.4098     1.2180 C.3     
  12 C12            2.3802    -3.7926     1.1746 C.3     
  13 C13            1.8292    -4.5798    -0.0160 C.3     
  14 C14            2.1396    -3.8283    -1.3120 C.3     
  15 C15            1.4863    -2.4454    -1.2686 C.3     
  16 C16           -3.8074     1.6887     0.1365 C.2     
  17 O17           -3.9341     2.8976     0.1635 O.2     
  18 N18           -4.8977     0.8965     0.1484 N.am    
  19 C19           -6.2354     1.4920     0.1938 C.3     
  20 C20           -7.2484     0.5170    -0.4099 C.3     
  21 C21           -6.6081     1.7814     1.6250 C.2     
  22 C22           -6.9479     0.3229    -1.8738 C.2     
  23 C23           -7.5089     0.9842    -2.8985 C.2     
  24 N24           -6.9873     0.5392    -4.0823 N.pl3   
  25 C25           -6.0528    -0.4458    -3.8415 C.ar    
  26 C26           -5.9836    -0.6189    -2.4477 C.ar    
  27 C27           -5.2430    -1.2168    -4.6689 C.ar    
  28 C28           -4.3864    -2.1457    -4.1222 C.ar    
  29 C29           -4.3201    -2.3239    -2.7425 C.ar    
  30 C30           -5.1102    -1.5636    -1.9040 C.ar    
  31 O31           -3.4684    -3.2458    -2.2190 O.3     
  32 C32            3.5313     1.0452    -0.0641 C.ar    
  33 C33           -5.7609     1.6029     2.6429 C.2     
  34 S34           -6.5938     2.0574     4.1277 S.3     
  35 C35           -7.9984     2.4423     3.2320 C.2     
  36 N36           -7.7944     2.2366     1.9746 N.2     
  37 C37            4.0734     2.3240    -0.1818 C.ar    
  38 C38            5.4501     2.4708    -0.2123 C.ar    
  39 C39            6.2393     1.3336    -0.1242 C.ar    
  40 C40            5.6340     0.0942    -0.0092 C.ar    
  41 N41            4.3228    -0.0176     0.0226 N.ar    
  42 H42           -0.9755    -1.9480    -0.0067 H       
  43 H43           -3.1929    -0.9350     0.0695 H       
  44 H44           -1.4452     2.9821     0.1071 H       
  45 H45            3.1165    -1.5470    -0.1841 H       
  46 H46            2.1195    -1.8489     2.0662 H       
  47 H47            0.6478    -2.5209     1.3240 H       
  48 H48            3.4594    -3.6815     1.0686 H       
  49 H49            2.1591    -4.3280     2.0979 H       
  50 H50            2.2946    -5.5650    -0.0469 H       
  51 H51            0.7501    -4.6910     0.0900 H       
  52 H52            3.2187    -3.7171    -1.4180 H       
  53 H53            1.7470    -4.3891    -2.1602 H       
  54 H54            0.4072    -2.5566    -1.1626 H       
  55 H55            1.7074    -1.9100    -2.1919 H       
  56 H56           -4.7966    -0.0680     0.1269 H       
  57 H57           -6.2395     2.4202    -0.3776 H       
  58 H58           -7.1816    -0.4414     0.1050 H       
  59 H59           -8.2542     0.9214    -0.2959 H       
  60 H60           -8.2612     1.7531    -2.8025 H       
  61 H61           -7.2379     0.8672    -4.9601 H       
  62 H62           -5.2866    -1.0871    -5.7402 H       
  63 H63           -3.7602    -2.7419    -4.7693 H       
  64 H64           -5.0576    -1.7025    -0.8342 H       
  65 H65           -2.5882    -2.8991    -2.0187 H       
  66 H66           -4.7452     1.2436     2.5687 H       
  67 H67           -8.9212     2.8089     3.6567 H       
  68 H68            3.4289     3.1881    -0.2485 H       
  69 H69            5.8991     3.4489    -0.3031 H       
  70 H70            7.3161     1.4145    -0.1455 H       
  71 H71            6.2460    -0.7931     0.0592 H       
@<TRIPOS>BOND
   1    1    2 ar
   2    1    7 1
   3    1    6 ar
   4    2    3 ar
   5    2    9 1
   6    3    4 ar
   7    3   42 1
   8    4    5 ar
   9    4   43 1
  10    5    6 ar
  11    5   16 1
  12    6   44 1
  13    7    8 2
  14    8    9 1
  15    8   32 1
  16    9   10 1
  17   10   11 1
  18   10   15 1
  19   10   45 1
  20   11   12 1
  21   11   46 1
  22   11   47 1
  23   12   13 1
  24   12   48 1
  25   12   49 1
  26   13   14 1
  27   13   50 1
  28   13   51 1
  29   14   15 1
  30   14   52 1
  31   14   53 1
  32   15   54 1
  33   15   55 1
  34   16   17 2
  35   16   18 am
  36   18   19 1
  37   18   56 1
  38   19   20 1
  39   19   21 1
  40   19   57 1
  41   20   22 1
  42   20   58 1
  43   20   59 1
  44   21   33 2
  45   21   36 1
  46   22   23 2
  47   22   26 1
  48   23   24 1
  49   23   60 1
  50   24   25 1
  51   24   61 1
  52   25   26 ar
  53   25   27 ar
  54   26   30 ar
  55   27   28 ar
  56   27   62 1
  57   28   29 ar
  58   28   63 1
  59   29   30 ar
  60   29   31 1
  61   30   64 1
  62   31   65 1
  63   32   37 ar
  64   32   41 ar
  65   33   34 1
  66   33   66 1
  67   34   35 1
  68   35   36 2
  69   35   67 1
  70   37   38 ar
  71   37   68 1
  72   38   39 ar
  73   38   69 1
  74   39   40 ar
  75   39   70 1
  76   40   41 ar
  77   40   71 1

#	End of record

