#	Name: ASD01910453
#	Creating user name:	WinNT
#	Creation time:	15. 06. 2019 19:55

#	Modifying user name:	WinNT
#	Modification time:	15. 06. 2019 19:55

#	Program:	/corina/corina34_cracker 3.40 0067  02.08.2006

@<TRIPOS>MOLECULE
ASD01910453
  44   47    0    0    0
SMALL
NO_CHARGES


@<TRIPOS>ATOM
   1 C1            -0.3097     1.8316     0.1863 C.ar    
   2 C2            -0.3652     0.4472     0.2081 C.ar    
   3 C3             0.8035    -0.2972     0.1993 C.ar    
   4 C4             2.0279     0.3378     0.1693 C.ar    
   5 C5             2.0883     1.7299     0.1473 C.ar    
   6 C6             0.9104     2.4746     0.1558 C.ar    
   7 F7            -1.5621    -0.1785     0.2384 F       
   8 C8             3.4029     2.4172     0.1155 C.2     
   9 N9             3.6099     3.7533     0.0919 N.2     
  10 C10            4.9103     3.9075     0.0692 C.2     
  11 O11            5.4519     2.6854     0.0792 O.3     
  12 N12            4.5786     1.8443     0.1106 N.2     
  13 C13            5.6560     5.2166     0.0372 C.3     
  14 C14            6.5551     5.3227     1.2711 C.3     
  15 C15            7.2880     6.6661     1.2564 C.3     
  16 C16            8.1704     6.7482     0.0068 C.3     
  17 N17            7.3366     6.5027    -1.1778 N.am    
  18 C18            6.5199     5.2823    -1.2263 C.3     
  19 C19            7.3213     7.3802    -2.2006 C.2     
  20 C20            6.5969     7.0563    -3.4340 C.2     
  21 O21            7.9085     8.4414    -2.1007 O.2     
  22 O22            6.0261     5.8702    -3.7299 O.3     
  23 C23            5.4549     5.9412    -4.9392 C.2     
  24 C24            5.6514     7.1804    -5.4408 C.2     
  25 C25            6.3769     7.9041    -4.4815 C.2     
  26 C26            6.8329     9.3363    -4.5906 C.3     
  27 H27           -1.2231     2.4080     0.1888 H       
  28 H28            0.7558    -1.3760     0.2164 H       
  29 H29            2.9383    -0.2432     0.1632 H       
  30 H30            0.9528     3.5537     0.1384 H       
  31 H31            4.9433     6.0413     0.0343 H       
  32 H32            5.9454     5.2516     2.1718 H       
  33 H33            7.2832     4.5117     1.2607 H       
  34 H34            6.5603     7.4775     1.2418 H       
  35 H35            7.9102     6.7509     2.1473 H       
  36 H36            8.6176     7.7400    -0.0603 H       
  37 H37            8.9555     5.9942     0.0637 H       
  38 H38            7.1704     4.4087    -1.2699 H       
  39 H39            5.8781     5.3068    -2.1069 H       
  40 H40            4.9247     5.1399    -5.4323 H       
  41 H41            5.3110     7.5465    -6.3981 H       
  42 H42            6.0629     9.9944    -4.1880 H       
  43 H43            7.7554     9.4680    -4.0251 H       
  44 H44            7.0102     9.5824    -5.6375 H       
@<TRIPOS>BOND
   1    1    2 ar
   2    1    6 ar
   3    1   27 1
   4    2    3 ar
   5    2    7 1
   6    3    4 ar
   7    3   28 1
   8    4    5 ar
   9    4   29 1
  10    5    6 ar
  11    5    8 1
  12    6   30 1
  13    8    9 1
  14    8   12 2
  15    9   10 2
  16   10   11 1
  17   10   13 1
  18   11   12 1
  19   13   14 1
  20   13   18 1
  21   13   31 1
  22   14   15 1
  23   14   32 1
  24   14   33 1
  25   15   16 1
  26   15   34 1
  27   15   35 1
  28   16   17 1
  29   16   36 1
  30   16   37 1
  31   17   18 1
  32   17   19 am
  33   18   38 1
  34   18   39 1
  35   19   20 1
  36   19   21 2
  37   20   22 1
  38   20   25 2
  39   22   23 1
  40   23   24 2
  41   23   40 1
  42   24   25 1
  43   24   41 1
  44   25   26 1
  45   26   42 1
  46   26   43 1
  47   26   44 1

#	End of record

