#	Name: ASD03091060
#	Creating user name:	WinNT
#	Creation time:	15. 06. 2019 20:30

#	Modifying user name:	WinNT
#	Modification time:	15. 06. 2019 20:30

#	Program:	/corina/corina34_cracker 3.40 0067  02.08.2006

@<TRIPOS>MOLECULE
ASD03091060
  57   59    0    0    0
SMALL
NO_CHARGES


@<TRIPOS>ATOM
   1 C1            -0.6528     0.4270    -1.4474 C.2     
   2 C2            -0.2536    -0.4833    -0.3147 C.3     
   3 O3             0.1271     0.6572    -2.3411 O.2     
   4 O4            -1.8767     0.9779    -1.4662 O.3     
   5 C5             1.6887    -1.7885     0.3644 C.2     
   6 C6             3.0715    -2.2659     0.1491 C.ar    
   7 C7             3.3337    -3.6341     0.0569 C.ar    
   8 C8             4.6249    -4.0772    -0.1441 C.ar    
   9 C9             5.6625    -3.1704    -0.2552 C.ar    
  10 C10            5.4122    -1.8064    -0.1648 C.ar    
  11 C11            4.1172    -1.3508     0.0318 C.ar    
  12 O12            1.0681    -2.1466     1.3463 O.2     
  13 N13            1.1165    -0.9563    -0.5280 N.am    
  14 N14            2.2265    -4.6094     0.1751 N.pl3   
  15 O15            2.4678    -5.8026     0.2154 O.2     
  16 O16            1.0743    -4.2188     0.2321 O.2     
  17 N17            8.1437     1.4294     0.4654 N.3     
  18 C18            7.0575     1.5050    -0.5235 C.3     
  19 C19            5.9724     0.4872    -0.2085 C.3     
  20 N20            6.4643    -0.8940    -0.2772 N.3     
  21 C21            7.4817    -1.1335     0.7559 C.3     
  22 C22            8.8761    -0.9124     0.1890 C.3     
  23 C23            9.2124     0.5491    -0.0283 C.3     
  24 C24            7.7514     1.1308     1.8260 C.3     
  25 C25            7.1761    -0.2691     1.9654 C.3     
  26 C26           -2.1924     1.8443    -2.5878 C.3     
  27 C27           -2.0778     1.0525    -3.8920 C.3     
  28 C28           -3.6197     2.3744    -2.4367 C.3     
  29 C29           -1.2125     3.0189    -2.6165 C.3     
  30 H30           -0.3068     0.0633     0.6268 H       
  31 H31           -0.9310    -1.3365    -0.2783 H       
  32 H32            4.8256    -5.1360    -0.2145 H       
  33 H33            6.6711    -3.5233    -0.4124 H       
  34 H34            3.9198    -0.2910     0.0983 H       
  35 H35            1.6117    -0.6705    -1.3116 H       
  36 H36            6.6264     2.5060    -0.5075 H       
  37 H37            7.4609     1.3043    -1.5160 H       
  38 H38            5.5912     0.6767     0.7950 H       
  39 H39            5.1575     0.6076    -0.9222 H       
  40 H40            7.4050    -2.1746     1.0697 H       
  41 H41            9.6050    -1.3401     0.8774 H       
  42 H42            8.9523    -1.4342    -0.7650 H       
  43 H43            9.3557     0.7266    -1.0942 H       
  44 H44           10.1379     0.7833     0.4977 H       
  45 H45            8.6239     1.2205     2.4733 H       
  46 H46            7.0013     1.8546     2.1446 H       
  47 H47            6.0951    -0.1975     2.0857 H       
  48 H48            7.5993    -0.7393     2.8530 H       
  49 H49           -2.7760     0.2157    -3.8715 H       
  50 H50           -2.3149     1.7029    -4.7339 H       
  51 H51           -1.0610     0.6749    -3.9996 H       
  52 H52           -3.7014     2.9385    -1.5076 H       
  53 H53           -3.8567     3.0248    -3.2787 H       
  54 H54           -4.3178     1.5376    -2.4163 H       
  55 H55           -0.1957     2.6413    -2.7241 H       
  56 H56           -1.4495     3.6694    -3.4584 H       
  57 H57           -1.2941     3.5830    -1.6874 H       
@<TRIPOS>BOND
   1    1    2 1
   2    1    3 2
   3    1    4 1
   4    2   13 1
   5    2   30 1
   6    2   31 1
   7    4   26 1
   8    5    6 1
   9    5   12 2
  10    5   13 am
  11    6    7 ar
  12    6   11 ar
  13    7    8 ar
  14    7   14 1
  15    8    9 ar
  16    8   32 1
  17    9   10 ar
  18    9   33 1
  19   10   11 ar
  20   10   20 1
  21   11   34 1
  22   13   35 1
  23   14   15 2
  24   14   16 2
  25   17   18 1
  26   17   23 1
  27   17   24 1
  28   18   19 1
  29   18   36 1
  30   18   37 1
  31   19   20 1
  32   19   38 1
  33   19   39 1
  34   20   21 1
  35   21   22 1
  36   21   25 1
  37   21   40 1
  38   22   23 1
  39   22   41 1
  40   22   42 1
  41   23   43 1
  42   23   44 1
  43   24   25 1
  44   24   45 1
  45   24   46 1
  46   25   47 1
  47   25   48 1
  48   26   27 1
  49   26   29 1
  50   26   28 1
  51   27   49 1
  52   27   50 1
  53   27   51 1
  54   28   52 1
  55   28   53 1
  56   28   54 1
  57   29   55 1
  58   29   56 1
  59   29   57 1

#	End of record

