#	Name: ASD02198784
#	Creating user name:	WinNT
#	Creation time:	15. 06. 2019 20:20

#	Modifying user name:	WinNT
#	Modification time:	15. 06. 2019 20:20

#	Program:	/corina/corina34_cracker 3.40 0067  02.08.2006

@<TRIPOS>MOLECULE
ASD02198784
  53   57    0    0    0
SMALL
NO_CHARGES


@<TRIPOS>ATOM
   1 C1             0.2037     1.5018     0.1036 C.2     
   2 C2             0.2451     0.2090     0.5135 C.2     
   3 N3             1.4266    -0.4153     0.7191 N.pl3   
   4 N4             2.5625     0.1531     0.5470 N.2     
   5 C5             2.6654     1.4040     0.1514 C.2     
   6 C6             1.4346     2.1704    -0.1000 C.2     
   7 C7             1.4084    -1.7488     1.1415 C.ar    
   8 C8             2.0853    -2.1227     2.3018 C.ar    
   9 C9             2.0649    -3.4435     2.7173 C.ar    
  10 C10            1.3711    -4.3918     1.9785 C.ar    
  11 C11            0.6972    -4.0171     0.8226 C.ar    
  12 C12            0.7113    -2.7007     0.4088 C.ar    
  13 C13            3.9913     2.0272    -0.0361 C.2     
  14 N14            4.4528     2.6275    -1.1739 N.pl3   
  15 N15            5.7528     3.0817    -0.9193 N.2     
  16 C16            6.0722     2.7752     0.3128 C.2     
  17 C17            4.9936     2.1180     0.9047 C.2     
  18 C18            3.7512     2.7639    -2.3785 C.ar    
  19 C19            3.7915     3.9646    -3.0750 C.ar    
  20 C20            3.0991     4.0958    -4.2628 C.ar    
  21 C21            2.3662     3.0331    -4.7586 C.ar    
  22 C22            2.3237     1.8363    -4.0671 C.ar    
  23 C23            3.0186     1.6969    -2.8817 C.ar    
  24 O24            1.4735     3.3347    -0.4691 O.2     
  25 N25            1.3506    -5.7288     2.3986 N.pl3   
  26 N26            1.2762    -6.1765     3.7238 N.2     
  27 C27            1.2791    -7.4851     3.7181 C.2     
  28 C28            1.3554    -7.9216     2.3918 C.2     
  29 C29            1.3935    -6.8227     1.5921 C.2     
  30 O30            2.7644    -1.1925     3.0233 O.3     
  31 C31            3.4346    -1.6472     4.2007 C.3     
  32 O32            1.4682    -6.8184     0.2367 O.3     
  33 C33            1.3973    -8.0851    -0.4210 C.3     
  34 H34           -0.7378     2.0030    -0.0661 H       
  35 H35           -0.6773    -0.3280     0.6778 H       
  36 H36            2.5888    -3.7356     3.6155 H       
  37 H37            0.1580    -4.7567     0.2493 H       
  38 H38            0.1868    -2.4119    -0.4900 H       
  39 H39            7.0137     2.9979     0.7927 H       
  40 H40            4.9539     1.7418     1.9163 H       
  41 H41            4.3635     4.7950    -2.6881 H       
  42 H42            3.1298     5.0295    -4.8047 H       
  43 H43            1.8256     3.1382    -5.6876 H       
  44 H44            1.7501     1.0083    -4.4568 H       
  45 H45            2.9853     0.7619    -2.3423 H       
  46 H46            1.2314    -8.1205     4.5902 H       
  47 H47            1.3763    -8.9495     2.0611 H       
  48 H48            3.9357    -0.8068     4.6810 H       
  49 H49            2.7077    -2.0784     4.8890 H       
  50 H50            4.1717    -2.4033     3.9301 H       
  51 H51            2.1691    -8.7444    -0.0237 H       
  52 H52            0.4167    -8.5291    -0.2497 H       
  53 H53            1.5521    -7.9480    -1.4912 H       
@<TRIPOS>BOND
   1    1    2 2
   2    1    6 1
   3    1   34 1
   4    2    3 1
   5    2   35 1
   6    3    4 1
   7    3    7 1
   8    4    5 2
   9    5    6 1
  10    5   13 1
  11    6   24 2
  12    7    8 ar
  13    7   12 ar
  14    8    9 ar
  15    8   30 1
  16    9   10 ar
  17    9   36 1
  18   10   11 ar
  19   10   25 1
  20   11   12 ar
  21   11   37 1
  22   12   38 1
  23   13   14 1
  24   13   17 2
  25   14   15 1
  26   14   18 1
  27   15   16 2
  28   16   17 1
  29   16   39 1
  30   17   40 1
  31   18   19 ar
  32   18   23 ar
  33   19   20 ar
  34   19   41 1
  35   20   21 ar
  36   20   42 1
  37   21   22 ar
  38   21   43 1
  39   22   23 ar
  40   22   44 1
  41   23   45 1
  42   25   26 1
  43   25   29 1
  44   26   27 2
  45   27   28 1
  46   27   46 1
  47   28   29 2
  48   28   47 1
  49   29   32 1
  50   30   31 1
  51   31   48 1
  52   31   49 1
  53   31   50 1
  54   32   33 1
  55   33   51 1
  56   33   52 1
  57   33   53 1

#	End of record

