#	Name: ASD01882799
#	Creating user name:	WinNT
#	Creation time:	15. 06. 2019 19:45

#	Modifying user name:	WinNT
#	Modification time:	15. 06. 2019 19:45

#	Program:	/corina/corina34_cracker 3.40 0067  02.08.2006

@<TRIPOS>MOLECULE
ASD01882799
  33   34    0    0    0
SMALL
NO_CHARGES


@<TRIPOS>ATOM
   1 O1            -0.1393     1.7452     0.3898 O.3     
   2 C2            -0.3169     0.3539     0.1167 C.3     
   3 C3             1.0387     1.0494    -0.0228 C.3     
   4 C4            -0.5166    -0.5864     1.3071 C.3     
   5 O5            -1.8151    -1.1785     1.2338 O.3     
   6 C6            -2.1544    -2.0460     2.2233 C.ar    
   7 C7            -3.3999    -2.6574     2.2146 C.ar    
   8 C8            -3.7423    -3.5388     3.2215 C.ar    
   9 C9            -2.8452    -3.8116     4.2379 C.ar    
  10 C10           -1.6038    -3.2034     4.2490 C.ar    
  11 C11           -1.2539    -2.3261     3.2406 C.ar    
  12 C12           -5.0949    -4.2032     3.2127 C.3     
  13 C13           -3.2216    -4.7732     5.3354 C.3     
  14 C14           -2.1587    -5.8687     5.4405 C.3     
  15 C15           -3.3113    -4.0205     6.6644 C.3     
  16 H16           -0.8430     0.0788    -0.7974 H       
  17 H17            1.4126     1.2361    -1.0295 H       
  18 H18            1.7965     0.8413     0.7326 H       
  19 H19            0.2415    -1.3692     1.2829 H       
  20 H20           -0.4265    -0.0219     2.2351 H       
  21 H21           -4.1012    -2.4441     1.4215 H       
  22 H22           -0.9050    -3.4179     5.0441 H       
  23 H23           -0.2822    -1.8549     3.2471 H       
  24 H24           -5.0153    -5.1831     2.7421 H       
  25 H25           -5.4492    -4.3197     4.2369 H       
  26 H26           -5.7986    -3.5873     2.6527 H       
  27 H27           -4.1873    -5.2246     5.1077 H       
  28 H28           -1.1930    -5.4173     5.6683 H       
  29 H29           -2.4309    -6.5642     6.2344 H       
  30 H30           -2.0948    -6.4049     4.4937 H       
  31 H31           -2.3457    -3.5691     6.8922 H       
  32 H32           -4.0686    -3.2401     6.5896 H       
  33 H33           -3.5836    -4.7160     7.4583 H       
@<TRIPOS>BOND
   1    1    2 1
   2    1    3 1
   3    2    3 1
   4    2    4 1
   5    2   16 1
   6    3   17 1
   7    3   18 1
   8    4    5 1
   9    4   19 1
  10    4   20 1
  11    5    6 1
  12    6    7 ar
  13    6   11 ar
  14    7    8 ar
  15    7   21 1
  16    8    9 ar
  17    8   12 1
  18    9   10 ar
  19    9   13 1
  20   10   11 ar
  21   10   22 1
  22   11   23 1
  23   12   24 1
  24   12   25 1
  25   12   26 1
  26   13   14 1
  27   13   15 1
  28   13   27 1
  29   14   28 1
  30   14   29 1
  31   14   30 1
  32   15   31 1
  33   15   32 1
  34   15   33 1

#	End of record

