#	Name: ASD01913175
#	Creating user name:	WinNT
#	Creation time:	15. 06. 2019 20:01

#	Modifying user name:	WinNT
#	Modification time:	15. 06. 2019 20:01

#	Program:	/corina/corina34_cracker 3.40 0067  02.08.2006

@<TRIPOS>MOLECULE
ASD01913175
  49   52    0    0    0
SMALL
NO_CHARGES


@<TRIPOS>ATOM
   1 C1             0.7305     1.1795    -1.0052 C.3     
   2 N2             0.3536    -0.1343    -0.4729 N.am    
   3 C3             1.3091    -0.7958     0.4312 C.3     
   4 C4             2.5761    -1.0997    -0.3665 C.3     
   5 C5             3.0168     0.1065    -1.1542 C.ar    
   6 C6             4.3389     0.1427    -1.5866 C.ar    
   7 C7             4.8120     1.2073    -2.3186 C.ar    
   8 C8             3.9559     2.2650    -2.6330 C.ar    
   9 C9             2.6334     2.2276    -2.1954 C.ar    
  10 C10            2.1698     1.1515    -1.4556 C.ar    
  11 C11            4.4328     3.3779    -3.3976 C.1     
  12 N12            4.8111     4.2608    -4.0041 N.1     
  13 C13           -0.8198    -0.7122    -0.7977 C.2     
  14 C14           -1.8123     0.0317    -1.5986 C.ar    
  15 C15           -2.6077    -0.6425    -2.5241 C.ar    
  16 C16           -3.5429     0.0647    -3.2766 C.ar    
  17 C17           -3.6771     1.4514    -3.0970 C.ar    
  18 C18           -2.8798     2.1117    -2.1733 C.ar    
  19 C19           -1.9587     1.4115    -1.4247 C.ar    
  20 O20           -1.0611    -1.8460    -0.4312 O.2     
  21 C21           -4.3638    -0.6193    -4.2299 C.1     
  22 C22           -5.0368    -1.1801    -5.0115 C.1     
  23 C23           -5.8577    -1.8641    -5.9648 C.ar    
  24 C24           -6.7935    -1.1472    -6.7157 C.ar    
  25 C25           -7.5783    -1.8228    -7.6319 C.ar    
  26 C26           -7.4052    -3.1938    -7.7708 C.ar    
  27 C27           -6.4608    -3.8416    -6.9960 C.ar    
  28 N28           -5.7206    -3.1760    -6.1332 N.ar    
  29 O29           -4.5858     2.1448    -3.8267 O.3     
  30 C30           -4.6684     3.5520    -3.5923 C.3     
  31 H31            0.0901     1.4249    -1.8523 H       
  32 H32            0.6082     1.9342    -0.2283 H       
  33 H33            1.5474    -0.1343     1.2641 H       
  34 H34            0.8788    -1.7238     0.8076 H       
  35 H35            3.3714    -1.3893     0.3204 H       
  36 H36            2.3788    -1.9234    -1.0527 H       
  37 H37            5.0019    -0.6747    -1.3443 H       
  38 H38            5.8404     1.2251    -2.6482 H       
  39 H39            1.9658     3.0422    -2.4344 H       
  40 H40           -2.4991    -1.7087    -2.6575 H       
  41 H41           -2.9846     3.1780    -2.0372 H       
  42 H42           -1.3447     1.9311    -0.7040 H       
  43 H43           -6.9023    -0.0810    -6.5820 H       
  44 H44           -8.3102    -1.2960    -8.2263 H       
  45 H45           -8.0035    -3.7493    -8.4778 H       
  46 H46           -6.3250    -4.9077    -7.1029 H       
  47 H47           -4.9313     3.7319    -2.5498 H       
  48 H48           -3.7051     4.0137    -3.8089 H       
  49 H49           -5.4320     3.9839    -4.2392 H       
@<TRIPOS>BOND
   1    1    2 1
   2    1   10 1
   3    1   31 1
   4    1   32 1
   5    2    3 1
   6    2   13 am
   7    3    4 1
   8    3   33 1
   9    3   34 1
  10    4    5 1
  11    4   35 1
  12    4   36 1
  13    5    6 ar
  14    5   10 ar
  15    6    7 ar
  16    6   37 1
  17    7    8 ar
  18    7   38 1
  19    8    9 ar
  20    8   11 1
  21    9   10 ar
  22    9   39 1
  23   11   12 3
  24   13   14 1
  25   13   20 2
  26   14   15 ar
  27   14   19 ar
  28   15   16 ar
  29   15   40 1
  30   16   17 ar
  31   16   21 1
  32   17   18 ar
  33   17   29 1
  34   18   19 ar
  35   18   41 1
  36   19   42 1
  37   21   22 3
  38   22   23 1
  39   23   24 ar
  40   23   28 ar
  41   24   25 ar
  42   24   43 1
  43   25   26 ar
  44   25   44 1
  45   26   27 ar
  46   26   45 1
  47   27   28 ar
  48   27   46 1
  49   29   30 1
  50   30   47 1
  51   30   48 1
  52   30   49 1

#	End of record

