#	Name: ASD00069368
#	Creating user name:	WinNT
#	Creation time:	15. 06. 2019 18:29

#	Modifying user name:	WinNT
#	Modification time:	15. 06. 2019 18:29

#	Program:	/corina/corina34_cracker 3.40 0067  02.08.2006

@<TRIPOS>MOLECULE
ASD00069368
  95  101    0    0    0
SMALL
NO_CHARGES


@<TRIPOS>ATOM
   1 C1             0.4919     0.7759     0.6621 C.2     
   2 C2             0.4747    -0.5868     0.4608 C.2     
   3 N3             1.7838     1.1659     0.5963 N.pl3   
   4 C4             2.5372     0.0500     0.3580 C.2     
   5 N5             1.7391    -0.9905     0.2795 N.2     
   6 C6            -0.7286    -1.4524     0.4477 C.ar    
   7 N7            -1.9285    -0.9466     0.7352 N.ar    
   8 C8            -0.6228    -2.8049     0.1292 C.ar    
   9 C9            -1.7819    -3.5782     0.1301 C.ar    
  10 N10           -2.9431    -3.0040     0.4329 N.ar    
  11 C11           -3.0072    -1.7137     0.7254 C.ar    
  12 C12            4.0042     0.0196     0.2119 C.2     
  13 N13            4.6439    -1.1592     0.0791 N.am    
  14 O14            4.6368     1.0583     0.2112 O.2     
  15 C15            6.0435    -1.1965     0.0468 C.ar    
  16 C16            6.6995    -2.1657    -0.7110 C.ar    
  17 C17            6.7808    -0.2658     0.7641 C.ar    
  18 C18            8.1622    -0.3033     0.7311 C.ar    
  19 C19            8.8144    -1.2670    -0.0157 C.ar    
  20 C20            8.0874    -2.1968    -0.7390 C.ar    
  21 N21            5.9609    -3.1054    -1.4414 N.3     
  22 C22            6.1699    -4.4612    -0.9178 C.3     
  23 C23            5.2366    -5.4371    -1.6385 C.3     
  24 C24            5.5244    -5.3936    -3.1409 C.3     
  25 C25            5.3538    -3.9622    -3.6546 C.3     
  26 C26            6.2835    -3.0314    -2.8720 C.3     
  27 F27            8.7279    -3.1370    -1.4676 F       
  28 N28           -1.7258    -4.9277    -0.1807 N.3     
  29 C29           -0.7138    -5.6135     0.6328 C.3     
  30 C30           -1.4793    -5.1277    -1.6145 C.3     
  31 C31           -1.5683    -6.6191    -1.9456 C.3     
  32 C32           -0.5307    -7.3834    -1.1187 C.3     
  33 C33           -0.7800    -7.1195     0.3688 C.3     
  34 C34            0.2730    -7.8206     1.1876 C.2     
  35 N35            0.4041    -9.1599     1.1125 N.am    
  36 O36            1.0026    -7.1798     1.9142 O.2     
  37 C37            1.4278    -9.8415     1.9085 C.3     
  38 C38            1.0052   -11.2923     2.1484 C.3     
  39 C39            2.7597    -9.8161     1.1560 C.3     
  40 C40            3.8289   -10.5279     1.9873 C.3     
  41 C41            3.4063   -11.9787     2.2272 C.3     
  42 C42            2.0743   -12.0042     2.9797 C.3     
  43 O43            6.8640    -5.8379    -3.3881 O.3     
  44 C44            6.7796    -6.9889    -4.2530 C.3     
  45 C45            5.3867    -6.8307    -4.9123 C.3     
  46 O46            4.6110    -6.2623    -3.8296 O.3     
  47 C47           -2.5281    -4.3623    -2.4237 C.3     
  48 N48           -4.2344    -1.1538     1.0356 N.pl3   
  49 C49           -4.3278     0.2713     1.3621 C.3     
  50 H50           -0.3640     1.4115     0.8347 H       
  51 H51            2.1158     2.0715     0.6991 H       
  52 H52            0.3343    -3.2429    -0.1129 H       
  53 H53            4.1350    -1.9817     0.0059 H       
  54 H54            6.2752     0.4888     1.3484 H       
  55 H55            8.7339     0.4227     1.2902 H       
  56 H56            9.8939    -1.2919    -0.0380 H       
  57 H57            7.2052    -4.7590    -1.0837 H       
  58 H58            5.9549    -4.4750     0.1507 H       
  59 H59            5.4064    -6.4467    -1.2645 H       
  60 H60            4.2005    -5.1507    -1.4579 H       
  61 H61            5.6070    -3.9230    -4.7140 H       
  62 H62            4.3201    -3.6460    -3.5147 H       
  63 H63            6.1509    -2.0076    -3.2218 H       
  64 H64            7.3182    -3.3370    -3.0273 H       
  65 H65            0.2765    -5.2419     0.3697 H       
  66 H66           -0.9051    -5.4211     1.6885 H       
  67 H67           -0.4853    -4.7583    -1.8671 H       
  68 H68           -2.5664    -6.9861    -1.7061 H       
  69 H69           -1.3699    -6.7688    -3.0069 H       
  70 H70           -0.6198    -8.4511    -1.3192 H       
  71 H71            0.4700    -7.0439    -1.3862 H       
  72 H72           -1.7657    -7.4943     0.6447 H       
  73 H73           -0.1794    -9.6725     0.5314 H       
  74 H74            1.5417    -9.3332     2.8660 H       
  75 H75            0.0563   -11.3105     2.6845 H       
  76 H76            0.8913   -11.8006     1.1909 H       
  77 H77            2.6458   -10.3243     0.1985 H       
  78 H78            3.0608    -8.7825     0.9852 H       
  79 H79            4.7777   -10.5098     1.4512 H       
  80 H80            3.9427   -10.0196     2.9448 H       
  81 H81            3.2924   -12.4870     1.2697 H       
  82 H82            4.1679   -12.4858     2.8194 H       
  83 H83            2.1882   -11.4959     3.9372 H       
  84 H84            1.7733   -13.0377     3.1505 H       
  85 H85            7.5673    -6.9635    -5.0059 H       
  86 H86            6.8289    -7.9107    -3.6734 H       
  87 H87            5.4318    -6.1475    -5.7605 H       
  88 H88            4.9854    -7.7983    -5.2136 H       
  89 H89           -2.4642    -3.2998    -2.1887 H       
  90 H90           -2.3453    -4.5106    -3.4880 H       
  91 H91           -3.5222    -4.7311    -2.1710 H       
  92 H92           -5.0326    -1.7050     1.0367 H       
  93 H93           -3.7125     0.4849     2.2361 H       
  94 H94           -3.9752     0.8617     0.5164 H       
  95 H95           -5.3653     0.5276     1.5768 H       
@<TRIPOS>BOND
   1    1    2 2
   2    1    3 1
   3    1   50 1
   4    2    6 1
   5    2    5 1
   6    3    4 1
   7    3   51 1
   8    4    5 2
   9    4   12 1
  10    6    7 ar
  11    6    8 ar
  12    7   11 ar
  13    8    9 ar
  14    8   52 1
  15    9   10 ar
  16    9   28 1
  17   10   11 ar
  18   11   48 1
  19   12   13 am
  20   12   14 2
  21   13   15 1
  22   13   53 1
  23   15   16 ar
  24   15   17 ar
  25   16   21 1
  26   16   20 ar
  27   17   18 ar
  28   17   54 1
  29   18   19 ar
  30   18   55 1
  31   19   20 ar
  32   19   56 1
  33   20   27 1
  34   21   22 1
  35   21   26 1
  36   22   23 1
  37   22   57 1
  38   22   58 1
  39   23   24 1
  40   23   59 1
  41   23   60 1
  42   24   25 1
  43   24   43 1
  44   24   46 1
  45   25   26 1
  46   25   61 1
  47   25   62 1
  48   26   63 1
  49   26   64 1
  50   28   29 1
  51   28   30 1
  52   29   33 1
  53   29   65 1
  54   29   66 1
  55   30   31 1
  56   30   47 1
  57   30   67 1
  58   31   32 1
  59   31   68 1
  60   31   69 1
  61   32   33 1
  62   32   70 1
  63   32   71 1
  64   33   34 1
  65   33   72 1
  66   34   35 am
  67   34   36 2
  68   35   37 1
  69   35   73 1
  70   37   38 1
  71   37   39 1
  72   37   74 1
  73   38   42 1
  74   38   75 1
  75   38   76 1
  76   39   40 1
  77   39   77 1
  78   39   78 1
  79   40   41 1
  80   40   79 1
  81   40   80 1
  82   41   42 1
  83   41   81 1
  84   41   82 1
  85   42   83 1
  86   42   84 1
  87   43   44 1
  88   44   45 1
  89   44   85 1
  90   44   86 1
  91   45   46 1
  92   45   87 1
  93   45   88 1
  94   47   89 1
  95   47   90 1
  96   47   91 1
  97   48   49 1
  98   48   92 1
  99   49   93 1
 100   49   94 1
 101   49   95 1

#	End of record

