#	Name: ASD01913266
#	Creating user name:	WinNT
#	Creation time:	15. 06. 2019 20:01

#	Modifying user name:	WinNT
#	Modification time:	15. 06. 2019 20:01

#	Program:	/corina/corina34_cracker 3.40 0067  02.08.2006

@<TRIPOS>MOLECULE
ASD01913266
  50   53    0    0    0
SMALL
NO_CHARGES


@<TRIPOS>ATOM
   1 C1             0.1607     1.3750     1.5443 C.ar    
   2 C2             0.1792    -0.0133     1.5325 C.ar    
   3 C3             1.3572    -0.6886     1.2622 C.ar    
   4 C4             2.5251     0.0311     1.0015 C.ar    
   5 C5             2.4959     1.4286     1.0154 C.ar    
   6 C6             1.3162     2.0899     1.2864 C.ar    
   7 O7            -0.9598    -0.7098     1.7868 O.3     
   8 C8            -2.1386     0.0511     2.0581 C.3     
   9 C9             3.7478    -0.6596     0.7216 C.1     
  10 C10            4.7503    -1.2259     0.4921 C.1     
  11 C11            5.9730    -1.9167     0.2121 C.ar    
  12 C12            7.1472    -1.1928    -0.0500 C.ar    
  13 C13            8.3307    -1.8645    -0.3210 C.ar    
  14 C14            8.3598    -3.2419    -0.3348 C.ar    
  15 C15            7.1964    -3.9738    -0.0756 C.ar    
  16 C16            6.0033    -3.3095     0.2044 C.ar    
  17 O17            7.1245     0.1633    -0.0387 O.3     
  18 C18            8.3554     0.8351    -0.3139 C.3     
  19 C19            7.2335    -5.4496    -0.0922 C.2     
  20 N20            8.4122    -6.0929    -0.2082 N.am    
  21 O21            6.2008    -6.0848    -0.0012 O.2     
  22 C22            8.6284    -7.5411    -0.1305 C.3     
  23 C23           10.1029    -7.7952    -0.3166 C.ar    
  24 C24           10.7450    -6.5861    -0.4958 C.ar    
  25 C25            9.7230    -5.4788    -0.4426 C.3     
  26 C26           10.8309    -8.9727    -0.3302 C.ar    
  27 C27           12.1985    -8.9397    -0.5223 C.ar    
  28 C28           12.8415    -7.7290    -0.7017 C.ar    
  29 C29           12.1156    -6.5537    -0.6891 C.ar    
  30 H30           -0.7608     1.8988     1.7514 H       
  31 H31            1.3729    -1.7685     1.2535 H       
  32 H32            3.3964     1.9900     0.8147 H       
  33 H33            1.2946     3.1697     1.2965 H       
  34 H34           -1.9742     0.6747     2.9369 H       
  35 H35           -2.3677     0.6843     1.2009 H       
  36 H36           -2.9730    -0.6253     2.2435 H       
  37 H37            9.2326    -1.3054    -0.5223 H       
  38 H38            9.2843    -3.7584    -0.5468 H       
  39 H39            5.1037    -3.8724     0.4053 H       
  40 H40            8.1980     1.9129    -0.2734 H       
  41 H41            9.0997     0.5485     0.4290 H       
  42 H42            8.7073     0.5563    -1.3071 H       
  43 H43            8.3100    -7.9104     0.8443 H       
  44 H44            8.0650    -8.0415    -0.9182 H       
  45 H45            9.7193    -4.9339    -1.3866 H       
  46 H46            9.9573    -4.7990     0.3766 H       
  47 H47           10.3288    -9.9186    -0.1901 H       
  48 H48           12.7651    -9.8591    -0.5320 H       
  49 H49           13.9107    -7.7021    -0.8520 H       
  50 H50           12.6181    -5.6081    -0.8293 H       
@<TRIPOS>BOND
   1    1    2 ar
   2    1    6 ar
   3    1   30 1
   4    2    3 ar
   5    2    7 1
   6    3    4 ar
   7    3   31 1
   8    4    5 ar
   9    4    9 1
  10    5    6 ar
  11    5   32 1
  12    6   33 1
  13    7    8 1
  14    8   34 1
  15    8   35 1
  16    8   36 1
  17    9   10 3
  18   10   11 1
  19   11   12 ar
  20   11   16 ar
  21   12   13 ar
  22   12   17 1
  23   13   14 ar
  24   13   37 1
  25   14   15 ar
  26   14   38 1
  27   15   16 ar
  28   15   19 1
  29   16   39 1
  30   17   18 1
  31   18   40 1
  32   18   41 1
  33   18   42 1
  34   19   20 am
  35   19   21 2
  36   20   22 1
  37   20   25 1
  38   22   23 1
  39   22   43 1
  40   22   44 1
  41   23   24 ar
  42   23   26 ar
  43   24   25 1
  44   24   29 ar
  45   25   45 1
  46   25   46 1
  47   26   27 ar
  48   26   47 1
  49   27   28 ar
  50   27   48 1
  51   28   29 ar
  52   28   49 1
  53   29   50 1

#	End of record

