#	Name: ASD00170272
#	Creating user name:	WinNT
#	Creation time:	15. 06. 2019 18:31

#	Modifying user name:	WinNT
#	Modification time:	15. 06. 2019 18:31

#	Program:	/corina/corina34_cracker 3.40 0067  02.08.2006

@<TRIPOS>MOLECULE
ASD00170272
  30   32    0    0    0
SMALL
NO_CHARGES


@<TRIPOS>ATOM
   1 C1            -0.1542     1.2781    -0.0954 C.2     
   2 C2            -0.0455    -0.0841    -0.0008 C.2     
   3 C3            -1.3262    -0.7535     0.1429 C.2     
   4 C4            -2.3520     0.1045     0.1533 C.2     
   5 S5            -1.7848     1.7588    -0.0052 S.3     
   6 C6             1.2354    -0.7950    -0.0410 C.2     
   7 C7             1.7735    -1.2661    -1.3230 C.2     
   8 O8             1.1863    -1.1245    -2.5290 O.3     
   9 C9             1.9647    -1.6753    -3.4702 C.2     
  10 C10            3.0693    -2.1815    -2.8791 C.2     
  11 C11            2.9589    -1.9191    -1.5042 C.2     
  12 O12            1.8540    -0.9953     0.9902 O.2     
  13 N13            0.9132     2.1433    -0.2384 N.pl3   
  14 C14           -1.4902    -2.2600     0.2672 C.3     
  15 C15           -2.8854    -2.5600     0.8196 C.3     
  16 C16           -3.9276    -1.8007    -0.0070 C.3     
  17 C17           -3.8064    -0.3037     0.2903 C.3     
  18 H18            1.7455    -1.7092    -4.5272 H       
  19 H19            3.8853    -2.6889    -3.3720 H       
  20 H20            3.6704    -2.1881    -0.7375 H       
  21 H21            1.8212     1.8046    -0.1964 H       
  22 H22            0.7547     3.0897    -0.3808 H       
  23 H23           -1.3786    -2.7218    -0.7139 H       
  24 H24           -0.7353    -2.6548     0.9471 H       
  25 H25           -3.0798    -3.6306     0.7562 H       
  26 H26           -2.9419    -2.2396     1.8599 H       
  27 H27           -3.7507    -1.9773    -1.0680 H       
  28 H28           -4.9265    -2.1458     0.2598 H       
  29 H29           -4.1480    -0.1040     1.3059 H       
  30 H30           -4.4125     0.2600    -0.4189 H       
@<TRIPOS>BOND
   1    1    2 2
   2    1   13 1
   3    1    5 1
   4    2    3 1
   5    2    6 1
   6    3    4 2
   7    3   14 1
   8    4    5 1
   9    4   17 1
  10    6    7 1
  11    6   12 2
  12    7    8 1
  13    7   11 2
  14    8    9 1
  15    9   10 2
  16    9   18 1
  17   10   11 1
  18   10   19 1
  19   11   20 1
  20   13   21 1
  21   13   22 1
  22   14   15 1
  23   14   23 1
  24   14   24 1
  25   15   16 1
  26   15   25 1
  27   15   26 1
  28   16   17 1
  29   16   27 1
  30   16   28 1
  31   17   29 1
  32   17   30 1

#	End of record

