#	Name: ASD02408377
#	Creating user name:	WinNT
#	Creation time:	15. 06. 2019 20:21

#	Modifying user name:	WinNT
#	Modification time:	15. 06. 2019 20:21

#	Program:	/corina/corina34_cracker 3.40 0067  02.08.2006

@<TRIPOS>MOLECULE
ASD02408377
  22   23    0    0    0
SMALL
NO_CHARGES


@<TRIPOS>ATOM
   1 C1            -0.0055     1.1474     0.5479 C.2     
   2 C2            -0.0104     0.2850    -0.5731 C.2     
   3 C3             1.3271     1.4115     0.8529 C.2     
   4 N4             2.0811     0.7376    -0.0447 N.pl3   
   5 N5             1.2263     0.0505    -0.9134 N.2     
   6 C6             3.4822     0.7292    -0.0964 C.ar    
   7 C7             4.1741    -0.4737    -0.0317 C.ar    
   8 C8             5.5555    -0.4782    -0.0835 C.ar    
   9 C9             6.2485     0.7126    -0.1996 C.ar    
  10 C10            5.5631     1.9117    -0.2643 C.ar    
  11 C11            4.1815     1.9233    -0.2184 C.ar    
  12 N12            1.7916     2.2114     1.8793 N.pl3   
  13 Cl13           3.3050    -1.9693     0.1147 Cl      
  14 Cl14           3.3219     3.4294    -0.3003 Cl      
  15 C15           -1.1537     1.6574     1.2351 C.1     
  16 N16           -2.0645     2.0620     1.7802 N.1     
  17 H17           -0.8876    -0.1115    -1.0628 H       
  18 H18            6.0941    -1.4130    -0.0328 H       
  19 H19            7.3278     0.7061    -0.2394 H       
  20 H20            6.1076     2.8400    -0.3546 H       
  21 H21            1.1668     2.7254     2.4143 H       
  22 H22            2.7425     2.2589     2.0649 H       
@<TRIPOS>BOND
   1    1    2 1
   2    1    3 2
   3    1   15 1
   4    2    5 2
   5    2   17 1
   6    3    4 1
   7    3   12 1
   8    4    5 1
   9    4    6 1
  10    6    7 ar
  11    6   11 ar
  12    7    8 ar
  13    7   13 1
  14    8    9 ar
  15    8   18 1
  16    9   10 ar
  17    9   19 1
  18   10   11 ar
  19   10   20 1
  20   11   14 1
  21   12   21 1
  22   12   22 1
  23   15   16 3

#	End of record

