#	Name: ASD05313166
#	Creating user name:	WinNT
#	Creation time:	15. 06. 2019 20:58

#	Modifying user name:	WinNT
#	Modification time:	15. 06. 2019 20:58

#	Program:	/corina/corina34_cracker 3.40 0067  02.08.2006

@<TRIPOS>MOLECULE
ASD05313166
  34   37    0    0    0
SMALL
NO_CHARGES


@<TRIPOS>ATOM
   1 C1            -0.0731     0.8198     1.0184 C.2     
   2 C2             0.1128    -0.6170     0.5928 C.3     
   3 N3             0.9363     1.7364     1.0445 N.pl3   
   4 N4             1.4567    -0.7165    -0.0076 N.am    
   5 C5             2.5714    -0.0368     0.6694 C.3     
   6 C6             2.3223     1.4763     0.6601 C.3     
   7 N7            -0.8987     2.6463     1.6984 N.2     
   8 N8            -1.1549     1.4145     1.4191 N.2     
   9 C9             0.3775     2.8959     1.4865 C.2     
  10 S10            2.6892     5.8648     1.8042 S.3     
  11 N11            2.3498     4.3801     1.4678 N.2     
  12 C12            1.0703     4.1870     1.6929 C.2     
  13 C13            0.4445     5.3449     2.1490 C.2     
  14 N14            1.2725     6.3445     2.2450 N.2     
  15 C15            1.6575    -1.4115    -1.1448 C.2     
  16 O16            2.7496    -1.4011    -1.6787 O.2     
  17 C17            0.5506    -2.1856    -1.7424 C.ar    
  18 C18            0.3190    -2.1305    -3.1197 C.ar    
  19 C19           -0.7174    -2.8566    -3.6714 C.ar    
  20 C20           -1.5258    -3.6378    -2.8631 C.ar    
  21 C21           -1.3007    -3.6960    -1.4974 C.ar    
  22 C22           -0.2654    -2.9801    -0.9346 C.ar    
  23 Cl23          -2.8276    -4.5477    -3.5640 Cl      
  24 Cl24           1.3317    -1.1509    -4.1339 Cl      
  25 H25            0.0430    -1.2739     1.4597 H       
  26 H26           -0.6444    -0.8881    -0.1429 H       
  27 H27            2.6403    -0.3879     1.6990 H       
  28 H28            3.5025    -0.2556     0.1467 H       
  29 H29            2.5027     1.8689    -0.3406 H       
  30 H30            2.9940     1.9605     1.3690 H       
  31 H31           -0.6055     5.4060     2.3944 H       
  32 H32           -0.8982    -2.8151    -4.7353 H       
  33 H33           -1.9350    -4.3073    -0.8725 H       
  34 H34           -0.0885    -3.0306     0.1296 H       
@<TRIPOS>BOND
   1    1    2 1
   2    1    3 1
   3    1    8 2
   4    2    4 1
   5    2   25 1
   6    2   26 1
   7    3    6 1
   8    3    9 1
   9    4    5 1
  10    4   15 am
  11    5    6 1
  12    5   27 1
  13    5   28 1
  14    6   29 1
  15    6   30 1
  16    7    8 1
  17    7    9 2
  18    9   12 1
  19   10   11 1
  20   10   14 1
  21   11   12 2
  22   12   13 1
  23   13   14 2
  24   13   31 1
  25   15   16 2
  26   15   17 1
  27   17   18 ar
  28   17   22 ar
  29   18   19 ar
  30   18   24 1
  31   19   20 ar
  32   19   32 1
  33   20   21 ar
  34   20   23 1
  35   21   22 ar
  36   21   33 1
  37   22   34 1

#	End of record

