#	Name: ASD01885859
#	Creating user name:	WinNT
#	Creation time:	15. 06. 2019 19:50

#	Modifying user name:	WinNT
#	Modification time:	15. 06. 2019 19:50

#	Program:	/corina/corina34_cracker 3.40 0067  02.08.2006

@<TRIPOS>MOLECULE
ASD01885859
  49   52    0    0    0
SMALL
NO_CHARGES


@<TRIPOS>ATOM
   1 C1            -0.0170     1.4035     0.0098 C.ar    
   2 C2             1.2135     2.1078     0.0018 C.ar    
   3 C3             1.1956     3.5255     0.0097 C.ar    
   4 C4            -0.0394     4.1598     0.0249 C.ar    
   5 C5            -1.2085     3.3917     0.0319 C.ar    
   6 N6            -1.1706     2.0724     0.0299 N.ar    
   7 C7             0.0021    -0.0041     0.0020 C.ar    
   8 C8             1.1926    -0.6630    -0.0129 C.ar    
   9 C9             2.3992     0.0333    -0.0203 C.ar    
  10 C10            2.4198     1.3961    -0.0132 C.ar    
  11 C11            2.4545     4.3052     0.0024 C.2     
  12 C12           -2.5234     4.0771     0.0481 C.2     
  13 N13           -3.6605     3.3535     0.0551 N.am    
  14 O14           -2.5758     5.2909     0.0552 O.2     
  15 C15            1.2060    -2.1699    -0.0211 C.3     
  16 C16            1.1968    -2.6646    -1.4446 C.ar    
  17 N17            0.2461    -2.2658    -2.2671 N.ar    
  18 C18            0.1983    -2.6721    -3.5206 C.ar    
  19 C19            1.1526    -3.5384    -4.0199 C.ar    
  20 C20            2.1676    -3.9794    -3.1850 C.ar    
  21 C21            2.1878    -3.5263    -1.8745 C.ar    
  22 C22            3.5566     4.1181     0.8620 C.2     
  23 N23            4.4707     4.9956     0.5454 N.2     
  24 N24            3.9951     5.7715    -0.5184 N.pl3   
  25 C25            2.7634     5.3343    -0.8428 C.2     
  26 C26            4.7161     6.8675    -1.1706 C.3     
  27 C27            3.2268    -4.9245    -3.6908 C.3     
  28 C28           -0.9099    -2.1867    -4.4191 C.3     
  29 F29           -1.6825    -1.2405    -3.7371 F       
  30 F30           -0.3592    -1.6011    -5.5641 F       
  31 F31           -1.7167    -3.2677    -4.7901 F       
  32 H32           -0.0970     5.2382     0.0317 H       
  33 H33           -0.9245    -0.5588     0.0083 H       
  34 H34            3.3302    -0.5138    -0.0315 H       
  35 H35            3.3617     1.9246    -0.0197 H       
  36 H36           -3.6186     2.3844     0.0494 H       
  37 H37           -4.5206     3.8017     0.0657 H       
  38 H38            2.1040    -2.5280     0.4822 H       
  39 H39            0.3242    -2.5440     0.4992 H       
  40 H40            1.1079    -3.8679    -5.0475 H       
  41 H41            2.9638    -3.8491    -1.1962 H       
  42 H42            3.6316     3.3787     1.6457 H       
  43 H43            2.1317     5.7290    -1.6248 H       
  44 H44            5.3025     6.4734    -2.0006 H       
  45 H45            4.0014     7.5998    -1.5461 H       
  46 H46            5.3807     7.3445    -0.4504 H       
  47 H47            4.0618    -4.3519    -4.0947 H       
  48 H48            3.5782    -5.5495    -2.8699 H       
  49 H49            2.8066    -5.5556    -4.4739 H       
@<TRIPOS>BOND
   1    1    7 ar
   2    1    2 ar
   3    1    6 ar
   4    2    3 ar
   5    2   10 ar
   6    3    4 ar
   7    3   11 1
   8    4    5 ar
   9    4   32 1
  10    5    6 ar
  11    5   12 1
  12    7    8 ar
  13    7   33 1
  14    8    9 ar
  15    8   15 1
  16    9   10 ar
  17    9   34 1
  18   10   35 1
  19   11   22 1
  20   11   25 2
  21   12   13 am
  22   12   14 2
  23   13   36 1
  24   13   37 1
  25   15   16 1
  26   15   38 1
  27   15   39 1
  28   16   17 ar
  29   16   21 ar
  30   17   18 ar
  31   18   19 ar
  32   18   28 1
  33   19   20 ar
  34   19   40 1
  35   20   21 ar
  36   20   27 1
  37   21   41 1
  38   22   23 2
  39   22   42 1
  40   23   24 1
  41   24   25 1
  42   24   26 1
  43   25   43 1
  44   26   44 1
  45   26   45 1
  46   26   46 1
  47   27   47 1
  48   27   48 1
  49   27   49 1
  50   28   29 1
  51   28   30 1
  52   28   31 1

#	End of record

