#	Name: ASD03470016
#	Creating user name:	WinNT
#	Creation time:	15. 06. 2019 20:42

#	Modifying user name:	WinNT
#	Modification time:	15. 06. 2019 20:42

#	Program:	/corina/corina34_cracker 3.40 0067  02.08.2006

@<TRIPOS>MOLECULE
ASD03470016
  24   25    0    0    0
SMALL
NO_CHARGES


@<TRIPOS>ATOM
   1 C1            -0.0167     1.3782     0.0096 C.ar    
   2 O2            -3.6200     3.3868     0.4337 O.2     
   3 C3             0.0021    -0.0041     0.0020 C.ar    
   4 O4            -3.6680     3.4074     2.6430 O.3     
   5 C5             1.2108    -0.6810    -0.0127 C.ar    
   6 O6             1.5011    -2.0148    -0.0217 O.3     
   7 C7             2.4055     0.0346    -0.0203 C.ar    
   8 O8             3.4443    -0.8508    -0.0340 O.3     
   9 C9             2.3791     1.4198    -0.0131 C.ar    
  10 C10            1.1693     2.0886     0.0021 C.ar    
  11 C11           -1.3328     2.1122     0.0198 C.3     
  12 C12           -1.7713     2.3528     1.4658 C.3     
  13 C13           -3.0874     3.0868     1.4760 C.2     
  14 C14            2.8812    -2.1105     0.3774 C.3     
  15 H15           -0.9259    -0.5565     0.0079 H       
  16 H16           -4.5116     3.8781     2.5989 H       
  17 H17            3.3040     1.9773    -0.0190 H       
  18 H18            1.1506     3.1684     0.0078 H       
  19 H19           -1.2190     3.0692    -0.4893 H       
  20 H20           -2.0860     1.5147    -0.4937 H       
  21 H21           -1.8851     1.3958     1.9749 H       
  22 H22           -1.0181     2.9503     1.9793 H       
  23 H23            2.9601    -2.2306     1.4579 H       
  24 H24            3.3725    -2.9361    -0.1376 H       
@<TRIPOS>BOND
   1    1    3 ar
   2    1   10 ar
   3    1   11 1
   4    2   13 2
   5    3    5 ar
   6    3   15 1
   7    4   13 1
   8    4   16 1
   9    5    6 1
  10    5    7 ar
  11    6   14 1
  12    7    8 1
  13    7    9 ar
  14    8   14 1
  15    9   10 ar
  16    9   17 1
  17   10   18 1
  18   11   12 1
  19   11   19 1
  20   11   20 1
  21   12   13 1
  22   12   21 1
  23   12   22 1
  24   14   23 1
  25   14   24 1

#	End of record

