#	Name: ASD01000010
#	Creating user name:	WinNT
#	Creation time:	15. 06. 2019 18:54

#	Modifying user name:	WinNT
#	Modification time:	15. 06. 2019 18:54

#	Program:	/corina/corina34_cracker 3.40 0067  02.08.2006

@<TRIPOS>MOLECULE
ASD01000010
  33   36    0    0    0
SMALL
NO_CHARGES


@<TRIPOS>ATOM
   1 C1            -0.0169     1.3984     0.0097 C.ar    
   2 C2             0.0021    -0.0041     0.0020 C.ar    
   3 C3            -1.2024    -0.7014     0.0107 C.ar    
   4 C4            -2.3971    -0.0147     0.0258 C.ar    
   5 C5            -2.4138     1.3717     0.0330 C.ar    
   6 C6            -1.2318     2.0800     0.0199 C.ar    
   7 C7             1.3910     1.8365    -0.0014 C.ar    
   8 C8             2.1710     0.6711    -0.0163 C.ar    
   9 N9             1.3204    -0.4225    -0.0138 N.pl3   
  10 C10            2.0035     3.0873     0.0011 C.ar    
  11 C11            3.3843     3.1754    -0.0118 C.ar    
  12 C12            4.1585     2.0176    -0.0282 C.ar    
  13 C13            3.5585     0.7774    -0.0302 C.ar    
  14 N14            4.0055     4.4311    -0.0079 N.am    
  15 C15            5.2892     4.5573    -0.3908 C.2     
  16 C16            6.0775     3.3593    -0.8468 C.3     
  17 C17            5.6621     2.1257    -0.0439 C.3     
  18 O18            5.8169     5.6492    -0.3685 O.2     
  19 C19           -3.6969    -0.7774     0.0340 C.3     
  20 F20           -4.0865    -1.0205     1.3555 F       
  21 F21           -4.6833    -0.0246    -0.6121 F       
  22 F22           -3.5273    -1.9950    -0.6337 F       
  23 H23           -1.2008    -1.7814     0.0053 H       
  24 H24           -3.3566     1.8984     0.0446 H       
  25 H25           -1.2471     3.1598     0.0261 H       
  26 H26            1.6082    -1.3488    -0.0221 H       
  27 H27            1.4031     3.9850     0.0127 H       
  28 H28            4.1668    -0.1149    -0.0431 H       
  29 H29            3.5069     5.2145     0.2723 H       
  30 H30            5.8880     3.1830    -1.9056 H       
  31 H31            7.1407     3.5473    -0.6972 H       
  32 H32            6.0310     2.2162     0.9778 H       
  33 H33            6.0852     1.2331    -0.5048 H       
@<TRIPOS>BOND
   1    1    2 ar
   2    1    7 1
   3    1    6 ar
   4    2    3 ar
   5    2    9 1
   6    3    4 ar
   7    3   23 1
   8    4    5 ar
   9    4   19 1
  10    5    6 ar
  11    5   24 1
  12    6   25 1
  13    7    8 ar
  14    7   10 ar
  15    8    9 1
  16    8   13 ar
  17    9   26 1
  18   10   11 ar
  19   10   27 1
  20   11   12 ar
  21   11   14 1
  22   12   13 ar
  23   12   17 1
  24   13   28 1
  25   14   15 am
  26   14   29 1
  27   15   16 1
  28   15   18 2
  29   16   17 1
  30   16   30 1
  31   16   31 1
  32   17   32 1
  33   17   33 1
  34   19   20 1
  35   19   21 1
  36   19   22 1

#	End of record

