#	Name: ASD00170756
#	Creating user name:	WinNT
#	Creation time:	15. 06. 2019 18:32

#	Modifying user name:	WinNT
#	Modification time:	15. 06. 2019 18:32

#	Program:	/corina/corina34_cracker 3.40 0067  02.08.2006

@<TRIPOS>MOLECULE
ASD00170756
  42   44    0    0    0
SMALL
NO_CHARGES


@<TRIPOS>ATOM
   1 C1            -0.0153     1.2115    -0.0012 C.2     
   2 O2             0.6386     1.0223    -1.0110 O.2     
   3 C3             0.4836     0.7277     1.3044 C.ar    
   4 C4             1.6426    -0.0478     1.3679 C.ar    
   5 C5             2.1033    -0.4956     2.5881 C.ar    
   6 C6             1.4183    -0.1775     3.7492 C.ar    
   7 C7             0.2677     0.5916     3.6924 C.ar    
   8 C8            -0.1995     1.0496     2.4785 C.ar    
   9 Cl9            2.0039    -0.7453     5.2816 Cl      
  10 C10           -1.4055     3.2882    -0.0038 C.2     
  11 C11           -1.2900     1.9218    -0.0786 C.2     
  12 C12           -2.5739     1.2582    -0.2436 C.2     
  13 C13           -3.5986     2.1158    -0.2882 C.2     
  14 S14           -3.0350     3.7694    -0.1301 S.3     
  15 C15           -5.0423     1.7160    -0.4525 C.3     
  16 C16           -2.7294    -0.2119    -0.3515 C.ar    
  17 C17           -3.4115    -0.9180     0.6386 C.ar    
  18 C18           -3.5531    -2.2865     0.5328 C.ar    
  19 C19           -3.0199    -2.9580    -0.5528 C.ar    
  20 C20           -2.3417    -2.2628    -1.5380 C.ar    
  21 C21           -2.1992    -0.8933    -1.4462 C.ar    
  22 C22           -1.7630    -3.0018    -2.7170 C.3     
  23 F23           -2.0383    -4.3677    -2.5921 F       
  24 F24           -2.3352    -2.5168    -3.8979 F       
  25 F25           -0.3782    -2.8068    -2.7555 F       
  26 C26           -4.2896    -3.0512     1.6023 C.3     
  27 F27           -5.6480    -3.1200     1.2748 F       
  28 F28           -3.7661    -4.3453     1.6947 F       
  29 F29           -4.1385    -2.3983     2.8304 F       
  30 N30           -0.3444     4.1551     0.1579 N.pl3   
  31 H31            2.1773    -0.2968     0.4632 H       
  32 H32            2.9996    -1.0959     2.6384 H       
  33 H33           -0.2622     0.8365     4.6010 H       
  34 H34           -1.0945     1.6526     2.4358 H       
  35 H35           -5.4887     1.5551     0.5288 H       
  36 H36           -5.5818     2.5081    -0.9717 H       
  37 H37           -5.1005     0.7955    -1.0335 H       
  38 H38           -3.8279    -0.3949     1.4868 H       
  39 H39           -3.1332    -4.0291    -0.6313 H       
  40 H40           -1.6740    -0.3510    -2.2185 H       
  41 H41            0.5491     3.8063     0.3028 H       
  42 H42           -0.4918     5.1133     0.1267 H       
@<TRIPOS>BOND
   1    1    2 2
   2    1    3 1
   3    1   11 1
   4    3    4 ar
   5    3    8 ar
   6    4    5 ar
   7    4   31 1
   8    5    6 ar
   9    5   32 1
  10    6    7 ar
  11    6    9 1
  12    7    8 ar
  13    7   33 1
  14    8   34 1
  15   10   11 2
  16   10   14 1
  17   10   30 1
  18   11   12 1
  19   12   13 2
  20   12   16 1
  21   13   14 1
  22   13   15 1
  23   15   35 1
  24   15   36 1
  25   15   37 1
  26   16   17 ar
  27   16   21 ar
  28   17   18 ar
  29   17   38 1
  30   18   19 ar
  31   18   26 1
  32   19   20 ar
  33   19   39 1
  34   20   21 ar
  35   20   22 1
  36   21   40 1
  37   22   23 1
  38   22   24 1
  39   22   25 1
  40   26   27 1
  41   26   28 1
  42   26   29 1
  43   30   41 1
  44   30   42 1

#	End of record

