#	Name: ASD02500866
#	Creating user name:	WinNT
#	Creation time:	15. 06. 2019 20:23

#	Modifying user name:	WinNT
#	Modification time:	15. 06. 2019 20:23

#	Program:	/corina/corina34_cracker 3.40 0067  02.08.2006

@<TRIPOS>MOLECULE
ASD02500866
  38   39    0    0    0
SMALL
NO_CHARGES


@<TRIPOS>ATOM
   1 S1             4.8874     4.2608    -0.8670 S.3     
   2 C2             6.2844     3.1868    -1.0560 C.2     
   3 N3             5.8753     1.9557    -0.7285 N.am    
   4 C4             4.6212     1.7636    -0.3551 C.2     
   5 C5             3.7872     2.9708    -0.3420 C.2     
   6 O6             7.4015     3.5075    -1.4149 O.2     
   7 C7             6.8097     0.8287    -0.7834 C.3     
   8 C8             7.3287     0.6746    -2.1898 C.2     
   9 O9             8.2047    -0.3005    -2.4789 O.3     
  10 O10            6.9563     1.4288    -3.0572 O.2     
  11 O11            4.1910     0.6678    -0.0461 O.2     
  12 C12            2.4767     3.0766    -0.0055 C.2     
  13 C13            1.8516     4.4008     0.1049 C.ar    
  14 C14            0.4611     4.5310     0.0095 C.ar    
  15 C15           -0.1225     5.7748     0.1139 C.ar    
  16 C16            0.6648     6.9006     0.3131 C.ar    
  17 C17            2.0510     6.7796     0.4088 C.ar    
  18 C18            2.6444     5.5368     0.3117 C.ar    
  19 O19            0.0834     8.1241     0.4148 O.3     
  20 C20           -1.3406     8.1767     0.3073 C.3     
  21 O21            2.8180     7.8856     0.6036 O.3     
  22 C22            4.2305     7.6881     0.6922 C.3     
  23 C23            7.9803     1.0900     0.1664 C.3     
  24 H24            6.2955    -0.0845    -0.4838 H       
  25 H25            8.5092    -0.3598    -3.3948 H       
  26 H26            1.8935     2.1870     0.1812 H       
  27 H27           -0.1539     3.6570    -0.1462 H       
  28 H28           -1.1954     5.8742     0.0401 H       
  29 H29            3.7176     5.4419     0.3860 H       
  30 H30           -1.7872     7.5736     1.0979 H       
  31 H31           -1.6746     9.2096     0.4057 H       
  32 H32           -1.6463     7.7869    -0.6636 H       
  33 H33            4.5933     7.2393    -0.2325 H       
  34 H34            4.7226     8.6483     0.8474 H       
  35 H35            4.4531     7.0263     1.5291 H       
  36 H36            7.6049     1.2014     1.1837 H       
  37 H37            8.6755     0.2515     0.1255 H       
  38 H38            8.4945     2.0032    -0.1332 H       
@<TRIPOS>BOND
   1    1    2 1
   2    1    5 1
   3    2    3 am
   4    2    6 2
   5    3    4 am
   6    3    7 1
   7    4    5 1
   8    4   11 2
   9    5   12 2
  10    7    8 1
  11    7   23 1
  12    7   24 1
  13    8    9 1
  14    8   10 2
  15    9   25 1
  16   12   13 1
  17   12   26 1
  18   13   14 ar
  19   13   18 ar
  20   14   15 ar
  21   14   27 1
  22   15   16 ar
  23   15   28 1
  24   16   17 ar
  25   16   19 1
  26   17   18 ar
  27   17   21 1
  28   18   29 1
  29   19   20 1
  30   20   30 1
  31   20   31 1
  32   20   32 1
  33   21   22 1
  34   22   33 1
  35   22   34 1
  36   22   35 1
  37   23   36 1
  38   23   37 1
  39   23   38 1

#	End of record

