#	Name: ASD01884061
#	Creating user name:	WinNT
#	Creation time:	15. 06. 2019 19:47

#	Modifying user name:	WinNT
#	Modification time:	15. 06. 2019 19:47

#	Program:	/corina/corina34_cracker 3.40 0067  02.08.2006

@<TRIPOS>MOLECULE
ASD01884061
  48   50    0    0    0
SMALL
NO_CHARGES


@<TRIPOS>ATOM
   1 C1             0.0382     1.4235    -0.0321 C.2     
   2 C2             0.0493     0.0072    -0.0008 C.2     
   3 C3             1.2780    -0.6614    -0.1451 C.2     
   4 C4             2.4486     0.1039    -0.3149 C.2     
   5 C5             2.3757     1.4540    -0.3367 C.2     
   6 N6             1.1897     2.1004    -0.1975 N.am    
   7 C7            -1.1664    -0.7289     0.1747 C.1     
   8 N8            -2.1308    -1.3129     0.3139 N.1     
   9 O9            -1.0139     2.0284     0.0855 O.2     
  10 C10            1.3402    -2.1374    -0.1185 C.ar    
  11 C11            1.7345    -2.8424    -1.2587 C.ar    
  12 C12            1.7911    -4.2190    -1.2298 C.ar    
  13 C13            1.4563    -4.9061    -0.0674 C.ar    
  14 C14            1.0639    -4.2078     1.0677 C.ar    
  15 C15            1.0104    -2.8312     1.0481 C.ar    
  16 O16            1.5127    -6.2624    -0.0424 O.3     
  17 C17            2.8033    -8.2259     0.3631 C.ar    
  18 C18            2.7035    -6.8460     0.2541 C.ar    
  19 C19            3.8403    -6.0688     0.4524 C.ar    
  20 C20            5.0319    -6.7094     0.7523 C.ar    
  21 C21            5.0522    -8.0884     0.8439 C.ar    
  22 N22            3.9564    -8.7961     0.6501 N.ar    
  23 C23            1.5794    -9.0807     0.1572 C.3     
  24 Cl24           2.2802    -5.0967    -2.6455 Cl      
  25 C25            1.1629     3.5649    -0.2279 C.3     
  26 C26            1.3395     4.1077     1.1916 C.3     
  27 C27            1.3116     5.6371     1.1599 C.3     
  28 C28            1.4881     6.1800     2.5794 C.3     
  29 H29            3.4037    -0.3874    -0.4274 H       
  30 H30            3.2798     2.0302    -0.4672 H       
  31 H31            1.9941    -2.3093    -2.1613 H       
  32 H32            0.8046    -4.7447     1.9683 H       
  33 H33            0.7095    -2.2892     1.9325 H       
  34 H34            3.7952    -4.9926     0.3742 H       
  35 H35            5.9342    -6.1379     0.9122 H       
  36 H36            5.9781    -8.5932     1.0770 H       
  37 H37            1.4976    -9.3505    -0.8956 H       
  38 H38            1.6629    -9.9857     0.7589 H       
  39 H39            0.6924    -8.5240     0.4596 H       
  40 H40            1.9725     3.9300    -0.8598 H       
  41 H41            0.2077     3.9025    -0.6298 H       
  42 H42            0.5299     3.7426     1.8236 H       
  43 H43            2.2948     3.7700     1.5936 H       
  44 H44            2.1211     6.0023     0.5279 H       
  45 H45            0.3563     5.9748     0.7580 H       
  46 H46            0.6786     5.8149     3.2114 H       
  47 H47            2.4434     5.8423     2.9813 H       
  48 H48            1.4682     7.2696     2.5568 H       
@<TRIPOS>BOND
   1    1    2 1
   2    1    6 am
   3    1    9 2
   4    2    3 2
   5    2    7 1
   6    3    4 1
   7    3   10 1
   8    4    5 2
   9    4   29 1
  10    5    6 1
  11    5   30 1
  12    6   25 1
  13    7    8 3
  14   10   11 ar
  15   10   15 ar
  16   11   12 ar
  17   11   31 1
  18   12   13 ar
  19   12   24 1
  20   13   14 ar
  21   13   16 1
  22   14   15 ar
  23   14   32 1
  24   15   33 1
  25   16   18 1
  26   17   18 ar
  27   17   22 ar
  28   17   23 1
  29   18   19 ar
  30   19   20 ar
  31   19   34 1
  32   20   21 ar
  33   20   35 1
  34   21   22 ar
  35   21   36 1
  36   23   37 1
  37   23   38 1
  38   23   39 1
  39   25   26 1
  40   25   40 1
  41   25   41 1
  42   26   27 1
  43   26   42 1
  44   26   43 1
  45   27   28 1
  46   27   44 1
  47   27   45 1
  48   28   46 1
  49   28   47 1
  50   28   48 1

#	End of record

