#	Name: ASD04910198
#	Creating user name:	WinNT
#	Creation time:	15. 06. 2019 20:55

#	Modifying user name:	WinNT
#	Modification time:	15. 06. 2019 20:55

#	Program:	/corina/corina34_cracker 3.40 0067  02.08.2006

@<TRIPOS>MOLECULE
ASD04910198
  41   42    0    0    0
SMALL
NO_CHARGES


@<TRIPOS>ATOM
   1 C1            -0.0180     1.4730     0.0101 C.2     
   2 C2             0.0021    -0.0041     0.0020 C.ar    
   3 C3             1.2188    -0.6888    -0.0133 C.ar    
   4 C4             1.2303    -2.0682    -0.0203 C.ar    
   5 C5             0.0396    -2.7731    -0.0127 C.ar    
   6 C6            -1.1697    -2.1009     0.0020 C.ar    
   7 C7            -1.1956    -0.7217     0.0154 C.ar    
   8 O8             1.0256     2.0946     0.0035 O.2     
   9 O9            -1.1936     2.1307     0.0193 O.3     
  10 C10            0.0601    -4.2800    -0.0210 C.3     
  11 O11           -1.0296    -4.7754     0.7596 O.3     
  12 C12           -0.0724    -4.7839    -1.4595 C.3     
  13 C13           -0.0624    -6.3171    -1.5785 C.3     
  14 C14           -1.1603    -6.1631    -2.6442 C.3     
  15 C15           -1.5244    -4.8329    -1.9638 C.3     
  16 C16           -0.6167    -5.9963    -4.0646 C.3     
  17 C17           -2.2606    -7.2219    -2.5481 C.3     
  18 C18           -1.1373     3.5816     0.0269 C.3     
  19 C19           -2.5589     4.1471     0.0367 C.3     
  20 H20            2.1488    -0.1398    -0.0199 H       
  21 H21            2.1707    -2.5992    -0.0321 H       
  22 H22           -2.0953    -2.6572     0.0071 H       
  23 H23           -2.1401    -0.1983     0.0318 H       
  24 H24            1.0004    -4.6329     0.4025 H       
  25 H25           -1.8996    -4.5001     0.4398 H       
  26 H26            0.6133    -4.2882    -2.1465 H       
  27 H27            0.8725    -6.7186    -1.9696 H       
  28 H28           -0.3985    -6.8273    -0.6758 H       
  29 H29           -2.2603    -4.9373    -1.1665 H       
  30 H30           -1.7698    -4.0361    -2.6659 H       
  31 H31           -0.0243    -6.8713    -4.3320 H       
  32 H32           -1.4480    -5.8933    -4.7620 H       
  33 H33            0.0096    -5.1054    -4.1116 H       
  34 H34           -2.7427    -7.1574    -1.5727 H       
  35 H35           -2.9995    -7.0501    -3.3307 H       
  36 H36           -1.8233    -8.2126    -2.6725 H       
  37 H37           -0.6055     3.9199     0.9162 H       
  38 H38           -0.6140     3.9295    -0.8637 H       
  39 H39           -3.0822     3.7991     0.9273 H       
  40 H40           -2.5166     5.2362     0.0424 H       
  41 H41           -3.0907     3.8088    -0.8526 H       
@<TRIPOS>BOND
   1    1    2 1
   2    1    8 2
   3    1    9 1
   4    2    3 ar
   5    2    7 ar
   6    3    4 ar
   7    3   20 1
   8    4    5 ar
   9    4   21 1
  10    5    6 ar
  11    5   10 1
  12    6    7 ar
  13    6   22 1
  14    7   23 1
  15    9   18 1
  16   10   11 1
  17   10   12 1
  18   10   24 1
  19   11   25 1
  20   12   13 1
  21   12   15 1
  22   12   26 1
  23   13   14 1
  24   13   27 1
  25   13   28 1
  26   14   15 1
  27   14   16 1
  28   14   17 1
  29   15   29 1
  30   15   30 1
  31   16   31 1
  32   16   32 1
  33   16   33 1
  34   17   34 1
  35   17   35 1
  36   17   36 1
  37   18   19 1
  38   18   37 1
  39   18   38 1
  40   19   39 1
  41   19   40 1
  42   19   41 1

#	End of record

