#	Name: ASD03090157
#	Creating user name:	WinNT
#	Creation time:	15. 06. 2019 20:28

#	Modifying user name:	WinNT
#	Modification time:	15. 06. 2019 20:28

#	Program:	/corina/corina34_cracker 3.40 0067  02.08.2006

@<TRIPOS>MOLECULE
ASD03090157
  39   41    0    0    0
SMALL
NO_CHARGES


@<TRIPOS>ATOM
   1 N1             0.0050     1.1516     1.2719 N.ar    
   2 C2             0.0632    -0.1662     1.2650 C.ar    
   3 C3             1.2505    -0.8217     1.0108 C.ar    
   4 C4             2.4012    -0.0672     0.7579 C.ar    
   5 C5             2.2931     1.3275     0.7748 C.ar    
   6 C6             1.0658     1.9003     1.0385 C.ar    
   7 C7             3.6971    -0.7263     0.4807 C.2     
   8 N8             5.7115    -3.4488    -0.4599 N.pl3   
   9 C9             4.8719    -4.4978    -0.8440 C.ar    
  10 C10            3.6670    -4.2278    -1.4801 C.ar    
  11 C11            2.8398    -5.2670    -1.8588 C.ar    
  12 C12            3.2099    -6.5749    -1.6054 C.ar    
  13 C13            4.4090    -6.8473    -0.9721 C.ar    
  14 C14            5.2432    -5.8134    -0.5956 C.ar    
  15 N15            3.8647    -1.9753     0.0950 N.2     
  16 C16            5.1649    -2.2277    -0.0602 C.2     
  17 N17            5.8488    -1.1429     0.2242 N.2     
  18 N18            4.9171    -0.1517     0.5728 N.pl3   
  19 C19            5.2098     1.2286     0.9669 C.3     
  20 C20            5.2591     2.1017    -0.2605 C.2     
  21 N21            5.5150     3.4195    -0.1402 N.am    
  22 O22            5.0685     1.6185    -1.3564 O.2     
  23 C23            4.8081    -8.2744    -0.6980 C.3     
  24 F24            3.8131    -9.1362    -1.1719 F       
  25 F25            6.0153    -8.5540    -1.3475 F       
  26 F26            4.9665    -8.4579     0.6799 F       
  27 H27           -0.8305    -0.7399     1.4614 H       
  28 H28            1.2910    -1.9009     1.0075 H       
  29 H29            3.1575     1.9466     0.5849 H       
  30 H30            0.9722     2.9761     1.0534 H       
  31 H31            6.6739    -3.5690    -0.4710 H       
  32 H32            3.3772    -3.2064    -1.6781 H       
  33 H33            1.9026    -5.0577    -2.3531 H       
  34 H34            2.5610    -7.3856    -1.9022 H       
  35 H35            6.1793    -6.0268    -0.1012 H       
  36 H36            4.4294     1.5883     1.6375 H       
  37 H37            6.1723     1.2645     1.4771 H       
  38 H38            5.6675     3.8059     0.7363 H       
  39 H39            5.5467     3.9814    -0.9302 H       
@<TRIPOS>BOND
   1    1    2 ar
   2    1    6 ar
   3    2    3 ar
   4    2   27 1
   5    3    4 ar
   6    3   28 1
   7    4    5 ar
   8    4    7 1
   9    5    6 ar
  10    5   29 1
  11    6   30 1
  12    7   15 2
  13    7   18 1
  14    8    9 1
  15    8   16 1
  16    8   31 1
  17    9   10 ar
  18    9   14 ar
  19   10   11 ar
  20   10   32 1
  21   11   12 ar
  22   11   33 1
  23   12   13 ar
  24   12   34 1
  25   13   14 ar
  26   13   23 1
  27   14   35 1
  28   15   16 1
  29   16   17 2
  30   17   18 1
  31   18   19 1
  32   19   20 1
  33   19   36 1
  34   19   37 1
  35   20   21 am
  36   20   22 2
  37   21   38 1
  38   21   39 1
  39   23   24 1
  40   23   25 1
  41   23   26 1

#	End of record

