#	Name: ASD01916695
#	Creating user name:	WinNT
#	Creation time:	15. 06. 2019 20:07

#	Modifying user name:	WinNT
#	Modification time:	15. 06. 2019 20:07

#	Program:	/corina/corina34_cracker 3.40 0067  02.08.2006

@<TRIPOS>MOLECULE
ASD01916695
  28   29    0    0    0
SMALL
NO_CHARGES


@<TRIPOS>ATOM
   1 C1            -0.0159     1.3233     0.0093 C.ar    
   2 N2             0.0021    -0.0041     0.0020 N.ar    
   3 C3             1.1471    -0.6637    -0.0124 C.ar    
   4 C4             2.3382     0.0473    -0.0200 C.ar    
   5 C5             2.2839     1.4334    -0.0120 C.ar    
   6 N6             1.1061     2.0328     0.0024 N.ar    
   7 C7            -1.2749     2.0057     0.0189 C.1     
   8 C8            -2.3070     2.5652     0.0268 C.1     
   9 C9            -3.6010     3.2666     0.0367 C.3     
  10 C10           -3.3620     4.7778     0.0438 C.3     
  11 C11           -4.6868     5.4959     0.0539 C.ar    
  12 C12           -5.2889     5.8188     1.2556 C.ar    
  13 C13           -6.5042     6.4774     1.2649 C.ar    
  14 C14           -7.1172     6.8137     0.0724 C.ar    
  15 C15           -6.5147     6.4916    -1.1293 C.ar    
  16 C16           -5.2974     5.8368    -1.1386 C.ar    
  17 H17            1.1555    -1.7437    -0.0180 H       
  18 H18            3.2876    -0.4673    -0.0314 H       
  19 H19            3.1933     2.0159    -0.0175 H       
  20 H20           -4.1695     2.9928    -0.8521 H       
  21 H21           -4.1612     2.9832     0.9278 H       
  22 H22           -2.7935     5.0515     0.9326 H       
  23 H23           -2.8019     5.0612    -0.8473 H       
  24 H24           -4.8099     5.5561     2.1873 H       
  25 H25           -6.9749     6.7290     2.2038 H       
  26 H26           -8.0670     7.3277     0.0797 H       
  27 H27           -6.9939     6.7540    -2.0610 H       
  28 H28           -4.8249     5.5885    -2.0775 H       
@<TRIPOS>BOND
   1    1    2 ar
   2    1    6 ar
   3    1    7 1
   4    2    3 ar
   5    3    4 ar
   6    3   17 1
   7    4    5 ar
   8    4   18 1
   9    5    6 ar
  10    5   19 1
  11    7    8 3
  12    8    9 1
  13    9   10 1
  14    9   20 1
  15    9   21 1
  16   10   11 1
  17   10   22 1
  18   10   23 1
  19   11   12 ar
  20   11   16 ar
  21   12   13 ar
  22   12   24 1
  23   13   14 ar
  24   13   25 1
  25   14   15 ar
  26   14   26 1
  27   15   16 ar
  28   15   27 1
  29   16   28 1

#	End of record

