#	Name: ASD02398018
#	Creating user name:	WinNT
#	Creation time:	15. 06. 2019 20:20

#	Modifying user name:	WinNT
#	Modification time:	15. 06. 2019 20:20

#	Program:	/corina/corina34_cracker 3.40 0067  02.08.2006

@<TRIPOS>MOLECULE
ASD02398018
  60   63    0    0    0
SMALL
NO_CHARGES


@<TRIPOS>ATOM
   1 C1            -0.8246     1.0030     0.3582 C.ar    
   2 C2            -0.3887    -0.3252     0.3216 C.ar    
   3 C3            -1.2918    -1.3550     0.5733 C.ar    
   4 C4            -2.6103    -1.0609     0.8572 C.ar    
   5 C5            -3.0387     0.2541     0.8927 C.ar    
   6 C6            -2.1495     1.2841     0.6496 C.ar    
   7 C7            -3.5867    -2.1762     1.1289 C.3     
   8 C8            -3.5166    -2.5617     2.5841 C.2     
   9 O9            -2.6891    -2.0551     3.3041 O.2     
  10 O10           -4.3736    -3.4679     3.0803 O.3     
  11 C11            1.0291    -0.6358     0.0156 C.ar    
  12 C12            2.0332    -0.2776     0.9135 C.ar    
  13 C13            1.3615    -1.2920    -1.1679 C.ar    
  14 C14            2.6825    -1.5789    -1.4472 C.ar    
  15 C15            3.6752    -1.2164    -0.5551 C.ar    
  16 C16            3.3504    -0.5694     0.6238 C.ar    
  17 C17            1.6810     0.4277     2.1979 C.3     
  18 N18            2.8806     0.5567     3.0289 N.am    
  19 C19            3.7920     1.5347     2.9353 C.2     
  20 O20            4.7961     1.4242     3.8122 O.3     
  21 C21            4.5953     0.2378     4.6337 C.3     
  22 C22            3.2778    -0.3625     4.1063 C.3     
  23 O23            3.7136     2.4390     2.1275 O.2     
  24 C24            3.5133    -1.7666     3.5459 C.3     
  25 C25            5.7341    -0.7318     4.4488 C.ar    
  26 C26            6.1542    -1.5146     5.5078 C.ar    
  27 C27            6.3549    -0.8423     3.2187 C.ar    
  28 C28            7.3996    -1.7316     3.0490 C.ar    
  29 C29            7.8237    -2.5101     4.1097 C.ar    
  30 C30            7.1989    -2.4040     5.3382 C.ar    
  31 O31            0.0491     2.0141     0.1144 O.3     
  32 C32           -0.4676     3.3453     0.1691 C.3     
  33 C33            5.1155    -1.5329    -0.8656 C.3     
  34 F34            5.1935    -2.1886    -2.0989 F       
  35 F35            5.8524    -0.3450    -0.9216 F       
  36 F36            5.6377    -2.3588     0.1356 F       
  37 H37           -0.9610    -2.3828     0.5461 H       
  38 H38           -4.0717     0.4771     1.1154 H       
  39 H39           -2.4898     2.3087     0.6787 H       
  40 H40           -4.5962    -1.8416     0.8899 H       
  41 H41           -3.3341    -3.0385     0.5120 H       
  42 H42           -4.2900    -3.6830     4.0193 H       
  43 H43            0.5871    -1.5759    -1.8651 H       
  44 H44            2.9413    -2.0878    -2.3640 H       
  45 H45            4.1297    -0.2886     1.3169 H       
  46 H46            1.2871     1.4186     1.9721 H       
  47 H47            0.9277    -0.1492     2.7344 H       
  48 H48            4.4930     0.5127     5.6835 H       
  49 H49            2.5249    -0.3850     4.8942 H       
  50 H50            3.9307    -2.4037     4.3256 H       
  51 H51            2.5667    -2.1845     3.2032 H       
  52 H52            4.2102    -1.7118     2.7096 H       
  53 H53            5.6665    -1.4312     6.4678 H       
  54 H54            6.0236    -0.2341     2.3900 H       
  55 H55            7.8841    -1.8185     2.0877 H       
  56 H56            8.6395    -3.2052     3.9771 H       
  57 H57            7.5302    -3.0122     6.1669 H       
  58 H58            0.3322     4.0546    -0.0440 H       
  59 H59           -1.2599     3.4582    -0.5709 H       
  60 H60           -0.8692     3.5387     1.1638 H       
@<TRIPOS>BOND
   1    1    2 ar
   2    1   31 1
   3    1    6 ar
   4    2    3 ar
   5    2   11 1
   6    3    4 ar
   7    3   37 1
   8    4    5 ar
   9    4    7 1
  10    5    6 ar
  11    5   38 1
  12    6   39 1
  13    7    8 1
  14    7   40 1
  15    7   41 1
  16    8    9 2
  17    8   10 1
  18   10   42 1
  19   11   12 ar
  20   11   13 ar
  21   12   17 1
  22   12   16 ar
  23   13   14 ar
  24   13   43 1
  25   14   15 ar
  26   14   44 1
  27   15   16 ar
  28   15   33 1
  29   16   45 1
  30   17   18 1
  31   17   46 1
  32   17   47 1
  33   18   19 am
  34   18   22 1
  35   19   20 1
  36   19   23 2
  37   20   21 1
  38   21   22 1
  39   21   25 1
  40   21   48 1
  41   22   24 1
  42   22   49 1
  43   24   50 1
  44   24   51 1
  45   24   52 1
  46   25   26 ar
  47   25   27 ar
  48   26   30 ar
  49   26   53 1
  50   27   28 ar
  51   27   54 1
  52   28   29 ar
  53   28   55 1
  54   29   30 ar
  55   29   56 1
  56   30   57 1
  57   31   32 1
  58   32   58 1
  59   32   59 1
  60   32   60 1
  61   33   34 1
  62   33   35 1
  63   33   36 1

#	End of record

