#	Name: ASD05790095
#	Creating user name:	WinNT
#	Creation time:	15. 06. 2019 21:03

#	Modifying user name:	WinNT
#	Modification time:	15. 06. 2019 21:03

#	Program:	/corina/corina34_cracker 3.40 0067  02.08.2006

@<TRIPOS>MOLECULE
ASD05790095
  50   52    0    0    0
SMALL
NO_CHARGES


@<TRIPOS>ATOM
   1 C1            -0.0066     1.3672    -0.2075 C.ar    
   2 C2             0.0067    -0.0115     0.0209 C.ar    
   3 C3             1.2208    -0.6696     0.2354 C.ar    
   4 C4             2.3994     0.0417     0.2211 C.ar    
   5 C5             2.3827     1.4144    -0.0063 C.ar    
   6 C6             1.1755     2.0726    -0.2207 C.ar    
   7 N7             3.5774     2.1316    -0.0193 N.am    
   8 C8             4.6939     1.5718    -0.5258 C.2     
   9 O9             4.6800     0.4131    -0.8932 O.2     
  10 C10            5.9346     2.3663    -0.6345 C.ar    
  11 C11            5.9542     3.6976    -0.2134 C.ar    
  12 C12            7.0954     1.7877    -1.1538 C.ar    
  13 C13            8.2517     2.5373    -1.2522 C.ar    
  14 C14            8.2610     3.8565    -0.8383 C.ar    
  15 C15            7.1156     4.4337    -0.3177 C.ar    
  16 C16           -1.2588    -0.7708     0.0362 C.2     
  17 N17           -1.2443    -2.1003     0.2566 N.am    
  18 C18           -2.5005    -2.8541     0.2717 C.3     
  19 C19           -2.2265    -4.2941    -0.0778 C.ar    
  20 C20           -3.0992    -4.9844    -0.8980 C.ar    
  21 C21           -2.8479    -6.3054    -1.2186 C.ar    
  22 C22           -1.7236    -6.9359    -0.7193 C.ar    
  23 C23           -0.8503    -6.2454     0.1001 C.ar    
  24 C24           -1.0994    -4.9231     0.4172 C.ar    
  25 Cl25           7.0850     0.1313    -1.6732 Cl      
  26 O26           -2.3144    -0.1969    -0.1502 O.2     
  27 C27           -3.1243    -2.7776     1.6667 C.3     
  28 O28           -2.2219    -3.3366     2.6233 O.3     
  29 C29           -3.4025    -1.3156     2.0215 C.3     
  30 H30           -0.9428     1.8779    -0.3781 H       
  31 H31            1.2344    -1.7348     0.4126 H       
  32 H32            3.3380    -0.4663     0.3868 H       
  33 H33            1.1659     3.1380    -0.3972 H       
  34 H34            3.6055     3.0336     0.3362 H       
  35 H35            5.0615     4.1499     0.1928 H       
  36 H36            9.1502     2.0918    -1.6530 H       
  37 H37            9.1677     4.4380    -0.9171 H       
  38 H38            7.1303     5.4648     0.0033 H       
  39 H39           -0.4022    -2.5582     0.4053 H       
  40 H40           -3.1888    -2.4277    -0.4580 H       
  41 H41           -3.9776    -4.4918    -1.2880 H       
  42 H42           -3.5301    -6.8449    -1.8588 H       
  43 H43           -1.5276    -7.9682    -0.9692 H       
  44 H44            0.0279    -6.7381     0.4904 H       
  45 H45           -0.4172    -4.3836     1.0574 H       
  46 H46           -4.0590    -3.3384     1.6779 H       
  47 H47           -2.5528    -3.3215     3.5318 H       
  48 H48           -4.0909    -0.8892     1.2918 H       
  49 H49           -3.8470    -1.2612     3.0153 H       
  50 H50           -2.4679    -0.7548     2.0103 H       
@<TRIPOS>BOND
   1    1    2 ar
   2    1    6 ar
   3    1   30 1
   4    2    3 ar
   5    2   16 1
   6    3    4 ar
   7    3   31 1
   8    4    5 ar
   9    4   32 1
  10    5    6 ar
  11    5    7 1
  12    6   33 1
  13    7    8 am
  14    7   34 1
  15    8    9 2
  16    8   10 1
  17   10   11 ar
  18   10   12 ar
  19   11   15 ar
  20   11   35 1
  21   12   13 ar
  22   12   25 1
  23   13   14 ar
  24   13   36 1
  25   14   15 ar
  26   14   37 1
  27   15   38 1
  28   16   17 am
  29   16   26 2
  30   17   18 1
  31   17   39 1
  32   18   19 1
  33   18   27 1
  34   18   40 1
  35   19   20 ar
  36   19   24 ar
  37   20   21 ar
  38   20   41 1
  39   21   22 ar
  40   21   42 1
  41   22   23 ar
  42   22   43 1
  43   23   24 ar
  44   23   44 1
  45   24   45 1
  46   27   28 1
  47   27   29 1
  48   27   46 1
  49   28   47 1
  50   29   48 1
  51   29   49 1
  52   29   50 1

#	End of record

