#	Name: ASD00841314
#	Creating user name:	WinNT
#	Creation time:	15. 06. 2019 18:41

#	Modifying user name:	WinNT
#	Modification time:	15. 06. 2019 18:41

#	Program:	/corina/corina34_cracker 3.40 0067  02.08.2006

@<TRIPOS>MOLECULE
ASD00841314
  93   98    0    0    0
SMALL
NO_CHARGES


@<TRIPOS>ATOM
   1 F1            -0.0973    -3.1246     4.7250 F       
   2 N2            -0.0159     1.3183     0.0093 N.ar    
   3 C3             0.0021    -0.0041     0.0020 C.ar    
   4 C4             1.2069    -0.6955    -0.0132 C.ar    
   5 C5             2.3925     0.0180    -0.0207 C.ar    
   6 C6             2.3308     1.4049    -0.0127 C.ar    
   7 C7             1.0980     2.0259     0.0025 C.ar    
   8 C8             1.2224    -2.2024    -0.0209 C.3     
   9 C9             0.4764    -2.7341    -1.2259 C.2     
  10 O10            2.5880    -2.6957    -0.0100 O.3     
  11 C11            3.3812    -2.3219    -1.0317 C.2     
  12 N12            4.6598    -2.7450    -1.0818 N.am    
  13 O13            2.9442    -1.6031    -1.9086 O.2     
  14 C14            5.5375    -2.3455    -2.1904 C.3     
  15 C15            6.1419    -3.6050    -2.8192 C.3     
  16 C16            6.8366    -4.4295    -1.7331 C.3     
  17 C17            5.8108    -4.8591    -0.6818 C.3     
  18 C18            5.2043    -3.6094    -0.0259 C.3     
  19 C19            7.4712    -5.6709    -2.3633 C.3     
  20 C20            8.4991    -5.2427    -3.4142 C.3     
  21 C21            9.1737    -6.4864    -3.9973 C.3     
  22 N22            9.8316    -7.2381    -2.9210 N.3     
  23 C23            8.8575    -7.7005    -1.9241 C.3     
  24 C24            8.1735    -6.4930    -1.2791 C.3     
  25 C25           10.6059    -8.3633    -3.4618 C.3     
  26 O26            0.7566    -2.5392    -2.3898 O.2     
  27 N27           -0.5539    -3.4627    -0.7649 N.am    
  28 C28            0.4505    -2.7460     1.1600 C.ar    
  29 C29           -0.5988    -3.4907     0.6311 C.ar    
  30 C30            0.6193    -2.6223     2.5215 C.ar    
  31 C31           -0.2615    -3.2439     3.3894 C.ar    
  32 C32           -1.3224    -3.9967     2.8756 C.ar    
  33 C33           -1.4874    -4.1183     1.4962 C.ar    
  34 C34           -1.0160    -5.8566    -2.0415 C.ar    
  35 C35           -1.3466    -6.8956    -1.1912 C.ar    
  36 C36           -0.1972    -6.0864    -3.1318 C.ar    
  37 C37            0.2926    -7.3551    -3.3740 C.ar    
  38 C38           -0.0376    -8.3992    -2.5223 C.ar    
  39 C39           -0.8590    -8.1660    -1.4288 C.ar    
  40 O40            0.4426    -9.6484    -2.7587 O.3     
  41 H41           -1.9864    -6.7136    -0.3403 H       
  42 C42            0.0613   -10.6746    -1.8403 C.3     
  43 C43           11.4702    -8.9672    -2.3531 C.3     
  44 C44           12.2766   -10.1391    -2.9163 C.3     
  45 C45           -2.2386    -4.6434     3.7661 C.1     
  46 N46           -2.9655    -5.1564     4.4724 N.1     
  47 O47           -1.1673    -0.6919     0.0099 O.3     
  48 C48           -3.5777    -0.8652     0.0330 C.3     
  49 C49           -2.3720     0.0766     0.0260 C.3     
  50 S50           -1.6450    -4.2387    -1.7395 S.o2    
  51 O51           -2.8259    -4.4051    -0.9668 O.2     
  52 O52           -1.6221    -3.5598    -2.9876 O.2     
  53 H53            3.3442    -0.4925    -0.0322 H       
  54 H54            3.2375     1.9916    -0.0178 H       
  55 H55            1.0444     3.1046     0.0084 H       
  56 H56            4.9579    -1.8054    -2.9390 H       
  57 H57            6.3358    -1.7067    -1.8124 H       
  58 H58            5.3505    -4.1989    -3.2765 H       
  59 H59            6.8686    -3.3191    -3.5797 H       
  60 H60            7.6114    -3.8267    -1.2594 H       
  61 H61            5.0225    -5.4412    -1.1593 H       
  62 H62            6.3018    -5.4659     0.0789 H       
  63 H63            5.9769    -3.0761     0.5281 H       
  64 H64            4.4035    -3.9046     0.6521 H       
  65 H65            6.6972    -6.2755    -2.8360 H       
  66 H66            7.9977    -4.6933    -4.2110 H       
  67 H67            9.2510    -4.6051    -2.9492 H       
  68 H68            8.4232    -7.1168    -4.4743 H       
  69 H69            9.9164    -6.1843    -4.7357 H       
  70 H70            8.1085    -8.3251    -2.4107 H       
  71 H71            9.3706    -8.2801    -1.1566 H       
  72 H72            8.9203    -5.8751    -0.7804 H       
  73 H73            7.4394    -6.8368    -0.5504 H       
  74 H74            9.9242    -9.1224    -3.8453 H       
  75 H75           11.2464    -8.0087    -4.2693 H       
  76 H76            1.4404    -2.0397     2.9122 H       
  77 H77           -2.3067    -4.6997     1.0998 H       
  78 H78            0.0594    -5.2733    -3.7947 H       
  79 H79            0.9319    -7.5342    -4.2259 H       
  80 H80           -1.1178    -8.9773    -0.7645 H       
  81 H81            0.5116   -11.6196    -2.1439 H       
  82 H82            0.4056   -10.4130    -0.8397 H       
  83 H83           -1.0242   -10.7740    -1.8366 H       
  84 H84           12.1519    -8.2081    -1.9696 H       
  85 H85           10.8297    -9.3217    -1.5455 H       
  86 H86           12.8924   -10.5693    -2.1265 H       
  87 H87           11.5949   -10.8982    -3.2998 H       
  88 H88           12.9171    -9.7846    -3.7239 H       
  89 H89           -4.4966    -0.2790     0.0452 H       
  90 H90           -3.5566    -1.4891    -0.8606 H       
  91 H91           -3.5390    -1.4986     0.9192 H       
  92 H92           -2.3931     0.7004     0.9196 H       
  93 H93           -2.4108     0.7099    -0.8602 H       
@<TRIPOS>BOND
   1    1   31 1
   2    2    3 ar
   3    2    7 ar
   4    3    4 ar
   5    3   47 1
   6    4    5 ar
   7    4    8 1
   8    5    6 ar
   9    5   53 1
  10    6    7 ar
  11    6   54 1
  12    7   55 1
  13    8    9 1
  14    8   10 1
  15    8   28 1
  16    9   26 2
  17    9   27 am
  18   10   11 1
  19   11   12 am
  20   11   13 2
  21   12   14 1
  22   12   18 1
  23   14   15 1
  24   14   56 1
  25   14   57 1
  26   15   16 1
  27   15   58 1
  28   15   59 1
  29   16   17 1
  30   16   19 1
  31   16   60 1
  32   17   18 1
  33   17   61 1
  34   17   62 1
  35   18   63 1
  36   18   64 1
  37   19   20 1
  38   19   24 1
  39   19   65 1
  40   20   21 1
  41   20   66 1
  42   20   67 1
  43   21   22 1
  44   21   68 1
  45   21   69 1
  46   22   23 1
  47   22   25 1
  48   23   24 1
  49   23   70 1
  50   23   71 1
  51   24   72 1
  52   24   73 1
  53   25   43 1
  54   25   74 1
  55   25   75 1
  56   27   50 am
  57   27   29 1
  58   28   29 ar
  59   28   30 ar
  60   29   33 ar
  61   30   31 ar
  62   30   76 1
  63   31   32 ar
  64   32   33 ar
  65   32   45 1
  66   33   77 1
  67   34   35 ar
  68   34   36 ar
  69   34   50 1
  70   35   41 1
  71   35   39 ar
  72   36   37 ar
  73   36   78 1
  74   37   38 ar
  75   37   79 1
  76   38   39 ar
  77   38   40 1
  78   39   80 1
  79   40   42 1
  80   42   81 1
  81   42   82 1
  82   42   83 1
  83   43   44 1
  84   43   84 1
  85   43   85 1
  86   44   86 1
  87   44   87 1
  88   44   88 1
  89   45   46 3
  90   47   49 1
  91   48   49 1
  92   48   89 1
  93   48   90 1
  94   48   91 1
  95   49   92 1
  96   49   93 1
  97   50   51 2
  98   50   52 2

#	End of record

