#	Name: ASD01913978
#	Creating user name:	WinNT
#	Creation time:	15. 06. 2019 20:02

#	Modifying user name:	WinNT
#	Modification time:	15. 06. 2019 20:02

#	Program:	/corina/corina34_cracker 3.40 0067  02.08.2006

@<TRIPOS>MOLECULE
ASD01913978
  37   40    0    0    0
SMALL
NO_CHARGES


@<TRIPOS>ATOM
   1 N1            -0.0768     1.2750    -0.0484 N.pl3   
   2 N2            -0.0362    -0.0144     0.0025 N.2     
   3 C3             1.1980    -0.4483    -0.2057 C.2     
   4 C4             1.9995     0.6771    -0.4030 C.2     
   5 C5             3.4709     0.8276    -0.6574 C.3     
   6 C6             3.7203     2.0675    -1.5156 C.3     
   7 C7             2.9514     3.2665    -1.0335 C.ar    
   8 C8             1.6797     3.1282    -0.4647 C.ar    
   9 C9             1.1519     1.7592    -0.3072 C.2     
  10 C10            0.9634     4.2444    -0.0553 C.ar    
  11 C11            1.5215     5.5015    -0.1905 C.ar    
  12 C12            2.7867     5.6391    -0.7325 C.ar    
  13 C13            3.4973     4.5297    -1.1528 C.ar    
  14 C14            1.6419    -1.8570    -0.2253 C.2     
  15 O15            2.8107    -2.1233    -0.4284 O.2     
  16 N16            0.7514    -2.8472    -0.0181 N.am    
  17 C17            1.1512    -4.1830    -0.1330 C.ar    
  18 C18            2.4243    -4.5651     0.2694 C.ar    
  19 C19            2.8164    -5.8844     0.1549 C.ar    
  20 C20            1.9422    -6.8251    -0.3607 C.ar    
  21 C21            0.6732    -6.4469    -0.7628 C.ar    
  22 C22            0.2737    -5.1302    -0.6443 C.ar    
  23 Cl23           2.4385    -8.4825    -0.5038 Cl      
  24 H24           -0.8737     1.8136     0.0769 H       
  25 H25            3.9945     0.9328     0.2928 H       
  26 H26            3.8410    -0.0551    -1.1790 H       
  27 H27            4.7849     2.3007    -1.4971 H       
  28 H28            3.4269     1.8502    -2.5427 H       
  29 H29           -0.0246     4.1313     0.3661 H       
  30 H30            0.9711     6.3748     0.1269 H       
  31 H31            3.2235     6.6221    -0.8286 H       
  32 H32            4.4833     4.6515    -1.5762 H       
  33 H33           -0.1668    -2.6337     0.2107 H       
  34 H34            3.1072    -3.8312     0.6712 H       
  35 H35            3.8064    -6.1821     0.4677 H       
  36 H36           -0.0069    -7.1829    -1.1655 H       
  37 H37           -0.7186    -4.8366    -0.9535 H       
@<TRIPOS>BOND
   1    1    2 1
   2    1    9 1
   3    1   24 1
   4    2    3 2
   5    3    4 1
   6    3   14 1
   7    4    5 1
   8    4    9 2
   9    5    6 1
  10    5   25 1
  11    5   26 1
  12    6    7 1
  13    6   27 1
  14    6   28 1
  15    7    8 ar
  16    7   13 ar
  17    8    9 1
  18    8   10 ar
  19   10   11 ar
  20   10   29 1
  21   11   12 ar
  22   11   30 1
  23   12   13 ar
  24   12   31 1
  25   13   32 1
  26   14   15 2
  27   14   16 am
  28   16   17 1
  29   16   33 1
  30   17   18 ar
  31   17   22 ar
  32   18   19 ar
  33   18   34 1
  34   19   20 ar
  35   19   35 1
  36   20   21 ar
  37   20   23 1
  38   21   22 ar
  39   21   36 1
  40   22   37 1

#	End of record

