#	Name: ASD01209279
#	Creating user name:	WinNT
#	Creation time:	15. 06. 2019 19:11

#	Modifying user name:	WinNT
#	Modification time:	15. 06. 2019 19:11

#	Program:	/corina/corina34_cracker 3.40 0067  02.08.2006

@<TRIPOS>MOLECULE
ASD01209279
  68   70    0    0    0
SMALL
NO_CHARGES


@<TRIPOS>ATOM
   1 C1             0.1638     1.1706    -0.0815 C.3     
   2 C2             0.1992    -0.3317     0.0330 C.ar    
   3 C3            -0.3270    -1.1145    -0.9776 C.ar    
   4 C4            -0.2945    -2.4924    -0.8725 C.ar    
   5 C5             0.2646    -3.0876     0.2428 C.ar    
   6 C6             0.7916    -2.3048     1.2530 C.ar    
   7 C7             0.7630    -0.9269     1.1460 C.ar    
   8 S8             0.3049    -4.8440     0.3772 S.o2    
   9 O9             0.3351    -5.0878     1.7768 O.2     
  10 O10           -0.7876    -5.2816    -0.4192 O.2     
  11 C11            1.8801    -5.3203    -0.3860 C.3     
  12 C12            1.5704     1.7103    -0.0469 C.2     
  13 O13            2.5014     0.9636     0.1699 O.2     
  14 N14            1.7939     3.0227    -0.2568 N.am    
  15 C15            3.0791     3.5404    -0.1208 C.2     
  16 C16            5.7724     7.5389    -0.3937 C.3     
  17 P17            4.8242     8.1697     1.0299 P.3     
  18 O18            3.7799     7.1887     1.4008 O.2     
  19 O19            5.8162     8.3952     2.2778 O.3     
  20 O20            4.1310     9.5683     0.6358 O.3     
  21 C21            3.2345    10.2645     1.5039 C.3     
  22 C22            2.7617    11.5508     0.8236 C.3     
  23 C23           -0.6346     1.7524     1.0869 C.3     
  24 C24           -2.0940     1.3055     0.9800 C.3     
  25 C25           -2.8771     1.7610     2.2237 C.3     
  26 C26           -3.9970     2.6955     1.7215 C.3     
  27 C27           -4.2076     2.2769     0.2452 C.3     
  28 C28           -2.7653     1.9791    -0.2346 C.3     
  29 S29            6.5534     5.9631     0.0504 S.3     
  30 C30            5.3594     8.7852     3.5745 C.3     
  31 C31            6.5555     8.9097     4.5204 C.3     
  32 S32            3.5301     5.2261    -0.3605 S.3     
  33 C33            5.2044     4.8300     0.0212 C.2     
  34 C34            5.2744     3.5177     0.2848 C.2     
  35 N35            4.1320     2.8588     0.2078 N.2     
  36 H36           -0.3104     1.4522    -1.0216 H       
  37 H37           -0.7638    -0.6494    -1.8490 H       
  38 H38           -0.7063    -3.1040    -1.6617 H       
  39 H39            1.2281    -2.7699     2.1245 H       
  40 H40            1.1748    -0.3154     1.9351 H       
  41 H41            2.7023    -4.8519     0.1549 H       
  42 H42            1.9899    -6.4041    -0.3466 H       
  43 H43            1.8945    -4.9913    -1.4251 H       
  44 H44            1.0594     3.6066    -0.5027 H       
  45 H45            5.1008     7.3863    -1.2386 H       
  46 H46            6.5415     8.2614    -0.6668 H       
  47 H47            2.3744     9.6313     1.7216 H       
  48 H48            3.7476    10.5124     2.4331 H       
  49 H49            2.0779    12.0818     1.4858 H       
  50 H50            3.6218    12.1840     0.6059 H       
  51 H51            2.2485    11.3029    -0.1056 H       
  52 H52           -0.2137     1.3968     2.0274 H       
  53 H53           -0.5846     2.8407     1.0548 H       
  54 H54           -2.1459     0.2211     0.8825 H       
  55 H55           -3.3099     0.8977     2.7293 H       
  56 H56           -2.2175     2.3004     2.9035 H       
  57 H57           -4.9101     2.5398     2.2961 H       
  58 H58           -3.6804     3.7368     1.7813 H       
  59 H59           -4.8280     1.3829     0.1819 H       
  60 H60           -4.6450     3.0934    -0.3293 H       
  61 H61           -2.2498     2.9047    -0.4908 H       
  62 H62           -2.7795     1.3006    -1.0876 H       
  63 H63            4.8488     9.7458     3.5061 H       
  64 H64            4.6695     8.0335     3.9580 H       
  65 H65            7.2454     9.6614     4.1369 H       
  66 H66            6.2071     9.2072     5.5095 H       
  67 H67            7.0661     7.9491     4.5888 H       
  68 H68            6.2025     3.0320     0.5473 H       
@<TRIPOS>BOND
   1    1    2 1
   2    1   12 1
   3    1   23 1
   4    1   36 1
   5    2    3 ar
   6    2    7 ar
   7    3    4 ar
   8    3   37 1
   9    4    5 ar
  10    4   38 1
  11    5    6 ar
  12    5    8 1
  13    6    7 ar
  14    6   39 1
  15    7   40 1
  16    8    9 2
  17    8   10 2
  18    8   11 1
  19   11   41 1
  20   11   42 1
  21   11   43 1
  22   12   13 2
  23   12   14 am
  24   14   15 1
  25   14   44 1
  26   15   32 1
  27   15   35 2
  28   16   17 1
  29   16   29 1
  30   16   45 1
  31   16   46 1
  32   17   18 2
  33   17   19 1
  34   17   20 1
  35   19   30 1
  36   20   21 1
  37   21   22 1
  38   21   47 1
  39   21   48 1
  40   22   49 1
  41   22   50 1
  42   22   51 1
  43   23   24 1
  44   23   52 1
  45   23   53 1
  46   24   25 1
  47   24   28 1
  48   24   54 1
  49   25   26 1
  50   25   55 1
  51   25   56 1
  52   26   27 1
  53   26   57 1
  54   26   58 1
  55   27   28 1
  56   27   59 1
  57   27   60 1
  58   28   61 1
  59   28   62 1
  60   29   33 1
  61   30   31 1
  62   30   63 1
  63   30   64 1
  64   31   65 1
  65   31   66 1
  66   31   67 1
  67   32   33 1
  68   33   34 2
  69   34   35 1
  70   34   68 1

#	End of record

