#	Name: ASD04590494
#	Creating user name:	WinNT
#	Creation time:	15. 06. 2019 20:50

#	Modifying user name:	WinNT
#	Modification time:	15. 06. 2019 20:50

#	Program:	/corina/corina34_cracker 3.40 0067  02.08.2006

@<TRIPOS>MOLECULE
ASD04590494
  54   59    0    0    0
SMALL
NO_CHARGES


@<TRIPOS>ATOM
   1 C1            -0.0167     1.3834     0.0096 C.ar    
   2 C2             0.0021    -0.0041     0.0020 C.ar    
   3 C3             2.3948     0.0191    -0.0202 C.ar    
   4 C4             2.3756     1.4249    -0.0129 C.ar    
   5 C5             1.1624     2.0987     0.0022 C.ar    
   6 N6             3.6952    -0.3636    -0.0352 N.2     
   7 C7             4.4664     0.6967    -0.0376 C.2     
   8 N8             3.6970     1.8290    -0.0242 N.pl3   
   9 C9             5.9437     0.6731    -0.0521 C.2     
  10 C10            6.7567    -0.4841    -0.0661 C.2     
  11 C11            8.0508    -0.0797    -0.0771 C.2     
  12 N12            8.0626     1.2790    -0.0704 N.pl3   
  13 N13            6.7358     1.7272    -0.0601 N.2     
  14 N14            6.3049    -1.8127    -0.0683 N.am    
  15 C15            7.1930    -2.8264    -0.0823 C.2     
  16 O16            8.3865    -2.5896    -0.0931 O.2     
  17 C17            1.1863    -0.6848    -0.0125 C.ar    
  18 C18            6.7197    -4.2183    -0.0845 C.2     
  19 C19            7.5005    -5.3710    -0.0981 C.ar    
  20 C20           -1.2971    -0.7676     0.0103 C.3     
  21 N21           -1.7325    -1.0083    -1.3719 N.3     
  22 C22           -2.8622    -1.9482    -1.4124 C.3     
  23 C23           -0.6185    -1.4969    -2.1976 C.3     
  24 C24           -1.1001    -1.6771    -3.6397 C.3     
  25 O25           -2.2178    -2.5691    -3.6558 O.3     
  26 C26           -3.3212    -2.1239    -2.8623 C.3     
  27 C27            6.4947    -6.4556    -0.0935 C.ar    
  28 N28            5.3336    -5.8471    -0.0787 N.2     
  29 O29            5.4426    -4.6415    -0.0679 O.3     
  30 C30            8.8618    -5.7011    -0.1131 C.ar    
  31 C31            9.2311    -7.0093    -0.1230 C.ar    
  32 C32            8.2858    -8.0396    -0.1191 C.ar    
  33 C33            6.9526    -7.7915    -0.1044 C.ar    
  34 H34           -0.9614     1.9069     0.0169 H       
  35 H35            1.1417     3.1785     0.0079 H       
  36 H36            4.0191     2.7439    -0.0231 H       
  37 H37            8.9181    -0.7232    -0.0888 H       
  38 H38            8.8530     1.8413    -0.0756 H       
  39 H39            5.3535    -2.0015    -0.0596 H       
  40 H40            1.1893    -1.7648    -0.0176 H       
  41 H41           -1.1546    -1.7218     0.5177 H       
  42 H42           -2.0564    -0.1872     0.5345 H       
  43 H43           -2.5486    -2.9117    -1.0106 H       
  44 H44           -3.6848    -1.5545    -0.8153 H       
  45 H45            0.1967    -0.7737    -2.1738 H       
  46 H46           -0.2691    -2.4532    -1.8084 H       
  47 H47           -1.3993    -0.7112    -4.0468 H       
  48 H48           -0.2936    -2.0932    -4.2434 H       
  49 H49           -4.1211    -2.8632    -2.9038 H       
  50 H50           -3.6850    -1.1711    -3.2469 H       
  51 H51            9.6111    -4.9234    -0.1171 H       
  52 H52           10.2817    -7.2593    -0.1345 H       
  53 H53            8.6277    -9.0640    -0.1281 H       
  54 H54            6.2468    -8.6090    -0.1013 H       
@<TRIPOS>BOND
   1    1    2 ar
   2    1    5 ar
   3    1   34 1
   4    2   17 ar
   5    2   20 1
   6    3    4 ar
   7    3    6 1
   8    3   17 ar
   9    4    5 ar
  10    4    8 1
  11    5   35 1
  12    6    7 2
  13    7    8 1
  14    7    9 1
  15    8   36 1
  16    9   10 1
  17    9   13 2
  18   10   11 2
  19   10   14 1
  20   11   12 1
  21   11   37 1
  22   12   13 1
  23   12   38 1
  24   14   15 am
  25   14   39 1
  26   15   16 2
  27   15   18 1
  28   17   40 1
  29   18   19 2
  30   18   29 1
  31   19   27 ar
  32   19   30 ar
  33   20   21 1
  34   20   41 1
  35   20   42 1
  36   21   22 1
  37   21   23 1
  38   22   26 1
  39   22   43 1
  40   22   44 1
  41   23   24 1
  42   23   45 1
  43   23   46 1
  44   24   25 1
  45   24   47 1
  46   24   48 1
  47   25   26 1
  48   26   49 1
  49   26   50 1
  50   27   28 2
  51   27   33 ar
  52   28   29 1
  53   30   31 ar
  54   30   51 1
  55   31   32 ar
  56   31   52 1
  57   32   33 ar
  58   32   53 1
  59   33   54 1

#	End of record

