#	Name: ASD09116044
#	Creating user name:	WinNT
#	Creation time:	15. 06. 2019 21:20

#	Modifying user name:	WinNT
#	Modification time:	15. 06. 2019 21:20

#	Program:	/corina/corina34_cracker 3.40 0067  02.08.2006

@<TRIPOS>MOLECULE
ASD09116044
  27   28    0    0    0
SMALL
NO_CHARGES


@<TRIPOS>ATOM
   1 C1            -0.0166     1.3711     0.0096 C.ar    
   2 C2             0.0021    -0.0041     0.0020 C.ar    
   3 C3            -1.2890    -0.7906     0.0178 C.3     
   4 C4            -1.9689    -0.6279    -1.3457 C.3     
   5 C5            -2.8058     0.6350    -1.3833 C.3     
   6 C6            -2.0080     1.9227    -1.3428 C.3     
   7 C7            -1.3380     2.1109     0.0199 C.3     
   8 N8             1.1165     2.0478     0.0024 N.ar    
   9 N9             2.2565     1.4558    -0.0145 N.ar    
  10 C10            2.3711     0.1359    -0.0259 C.ar    
  11 C11            1.2209    -0.6575    -0.0178 C.ar    
  12 N12            3.6289    -0.4565    -0.0463 N.pl3   
  13 N13            4.7508     0.3227    -0.0545 N.3     
  14 H14           -1.0751    -1.8441     0.1981 H       
  15 H15           -1.9424    -0.4085     0.8020 H       
  16 H16           -1.2063    -0.5759    -2.1228 H       
  17 H17           -2.6108    -1.4890    -1.5314 H       
  18 H18           -3.4017     0.6270    -2.2960 H       
  19 H19           -3.4860     0.6236    -0.5317 H       
  20 H20           -1.2414     1.8933    -2.1171 H       
  21 H21           -2.6753     2.7633    -1.5327 H       
  22 H22           -1.9786     1.7056     0.8031 H       
  23 H23           -1.1634     3.1717     0.1998 H       
  24 H24            1.2811    -1.7358    -0.0264 H       
  25 H25            3.7096    -1.4231    -0.0546 H       
  26 H26            4.7576     0.9552     0.7316 H       
  27 H27            5.5850    -0.2447    -0.0694 H       
@<TRIPOS>BOND
   1    1    2 ar
   2    1    8 ar
   3    1    7 1
   4    2    3 1
   5    2   11 ar
   6    3    4 1
   7    3   14 1
   8    3   15 1
   9    4    5 1
  10    4   16 1
  11    4   17 1
  12    5    6 1
  13    5   18 1
  14    5   19 1
  15    6    7 1
  16    6   20 1
  17    6   21 1
  18    7   22 1
  19    7   23 1
  20    8    9 ar
  21    9   10 ar
  22   10   11 ar
  23   10   12 1
  24   11   24 1
  25   12   13 1
  26   12   25 1
  27   13   26 1
  28   13   27 1

#	End of record

