#	Name: ASD02030042
#	Creating user name:	WinNT
#	Creation time:	15. 06. 2019 20:14

#	Modifying user name:	WinNT
#	Modification time:	15. 06. 2019 20:14

#	Program:	/corina/corina34_cracker 3.40 0067  02.08.2006

@<TRIPOS>MOLECULE
ASD02030042
  51   53    0    0    0
SMALL
NO_CHARGES


@<TRIPOS>ATOM
   1 C1            -0.0167     1.3781     0.0096 C.ar    
   2 C2             0.0021    -0.0041     0.0020 C.ar    
   3 C3             1.2084    -0.6789    -0.0132 C.ar    
   4 C4             2.3960     0.0285    -0.0212 C.ar    
   5 C5             2.3773     1.4107    -0.0145 C.ar    
   6 C6             1.1710     2.0855     0.0021 C.ar    
   7 C7             3.6720     2.1819    -0.0228 C.3     
   8 C8             3.9689     2.6648    -1.4439 C.3     
   9 O9             3.5611     3.3083     0.8496 O.3     
  10 N10            5.2836     3.3105    -1.4756 N.am    
  11 C11            5.7582     3.8163    -2.6311 C.2     
  12 O12            5.0970     3.7370    -3.6448 O.2     
  13 C13            7.1106     4.4805    -2.6637 C.3     
  14 C14            7.4075     4.9634    -4.0848 C.3     
  15 C15            8.7599     5.6276    -4.1174 C.2     
  16 C16            8.8871     6.9892    -3.7739 C.2     
  17 O17           10.0754     7.6130    -3.7918 O.3     
  18 C18           11.2070     6.9637    -4.1401 C.ar    
  19 C19           11.1529     5.6025    -4.4943 C.ar    
  20 C20            9.8603     4.9146    -4.4724 C.2     
  21 O21            7.8930     7.6155    -3.4530 O.2     
  22 C22            9.7523     3.4580    -4.8435 C.3     
  23 C23           12.4267     7.6228    -4.1540 C.ar    
  24 C24           13.5754     6.9373    -4.5150 C.ar    
  25 C25           13.5155     5.5900    -4.8650 C.ar    
  26 C26           12.3231     4.9258    -4.8563 C.ar    
  27 C27           12.5027     9.0801    -3.7781 C.3     
  28 O28           14.7689     7.5838    -4.5281 O.3     
  29 H29           -0.9592     1.9054     0.0170 H       
  30 H30           -0.9258    -0.5567     0.0083 H       
  31 H31            1.2231    -1.7588    -0.0184 H       
  32 H32            3.3386    -0.4987    -0.0324 H       
  33 H33            1.1563     3.1654     0.0069 H       
  34 H34            4.4815     1.5365     0.3182 H       
  35 H35            3.9656     1.8138    -2.1250 H       
  36 H36            3.2056     3.3795    -1.7517 H       
  37 H37            2.8589     3.9269     0.6059 H       
  38 H38            5.8124     3.3739    -0.6649 H       
  39 H39            7.1139     5.3315    -1.9827 H       
  40 H40            7.8739     3.7659    -2.3559 H       
  41 H41            7.4042     4.1123    -4.7659 H       
  42 H42            6.6442     5.6780    -4.3927 H       
  43 H43           10.7394     3.0748    -5.1023 H       
  44 H44            9.3547     2.8962    -3.9982 H       
  45 H45            9.0847     3.3493    -5.6982 H       
  46 H46           14.4185     5.0677    -5.1448 H       
  47 H47           12.2827     3.8814    -5.1282 H       
  48 H48           12.6734     9.1703    -2.7053 H       
  49 H49           13.3238     9.5522    -4.3175 H       
  50 H50           11.5658     9.5721    -4.0395 H       
  51 H51           15.2459     7.5462    -3.6878 H       
@<TRIPOS>BOND
   1    1    2 ar
   2    1    6 ar
   3    1   29 1
   4    2    3 ar
   5    2   30 1
   6    3    4 ar
   7    3   31 1
   8    4    5 ar
   9    4   32 1
  10    5    6 ar
  11    5    7 1
  12    6   33 1
  13    7    8 1
  14    7    9 1
  15    7   34 1
  16    8   10 1
  17    8   35 1
  18    8   36 1
  19    9   37 1
  20   10   11 am
  21   10   38 1
  22   11   12 2
  23   11   13 1
  24   13   14 1
  25   13   39 1
  26   13   40 1
  27   14   15 1
  28   14   41 1
  29   14   42 1
  30   15   16 1
  31   15   20 2
  32   16   17 1
  33   16   21 2
  34   17   18 1
  35   18   19 ar
  36   18   23 ar
  37   19   20 1
  38   19   26 ar
  39   20   22 1
  40   22   43 1
  41   22   44 1
  42   22   45 1
  43   23   24 ar
  44   23   27 1
  45   24   25 ar
  46   24   28 1
  47   25   26 ar
  48   25   46 1
  49   26   47 1
  50   27   48 1
  51   27   49 1
  52   27   50 1
  53   28   51 1

#	End of record

