#	Name: ASD07300612
#	Creating user name:	WinNT
#	Creation time:	15. 06. 2019 21:10

#	Modifying user name:	WinNT
#	Modification time:	15. 06. 2019 21:10

#	Program:	/corina/corina34_cracker 3.40 0067  02.08.2006

@<TRIPOS>MOLECULE
ASD07300612
  57   62    0    0    0
SMALL
NO_CHARGES


@<TRIPOS>ATOM
   1 C1            -0.0034     1.3930     0.2418 C.2     
   2 C2             0.0021    -0.0041     0.0020 C.2     
   3 N3             1.1908     2.0671     0.2269 N.pl3   
   4 N4             1.1441    -0.6202    -0.2281 N.2     
   5 C5             2.3024     0.0467    -0.2404 C.2     
   6 C6             2.3476     1.3758    -0.0180 C.2     
   7 N7            -0.9702     2.2587     0.5010 N.2     
   8 C8            -0.4512     3.4735     0.6503 C.2     
   9 C9             0.9143     3.3827     0.4831 C.2     
  10 C10            1.6345     5.7096    -0.0633 C.ar    
  11 C11            1.8895     4.4898     0.5665 C.ar    
  12 C12            3.0846     4.3337     1.2787 C.ar    
  13 C13            3.9638     5.4012     1.3264 C.ar    
  14 C14            3.6373     6.5771     0.6755 C.ar    
  15 N15            2.5036     6.6959     0.0112 N.ar    
  16 C16            5.3749     9.6831     2.0850 C.3     
  17 C17            4.3492     8.5494     2.0040 C.3     
  18 C18            4.5925     7.7417     0.7254 C.3     
  19 C19            6.0336     7.2226     0.7290 C.3     
  20 C20            6.9942     8.4075     0.8592 C.3     
  21 O21            6.6937     9.1337     2.0527 O.3     
  22 N22           -1.1861    -0.7177     0.0100 N.pl3   
  23 C23           -2.4814    -0.0309     0.1360 C.3     
  24 C24           -3.4039    -0.5296    -0.9821 C.3     
  25 O25           -3.4384    -1.9587    -0.9615 O.3     
  26 C26           -2.1750    -2.5783    -1.2140 C.3     
  27 C27           -1.1899    -2.1840    -0.1135 C.3     
  28 C28           -1.2222     4.7322     0.9541 C.3     
  29 C29           -2.2932     5.1642    -0.0495 C.3     
  30 C30           -2.7039     4.5855     1.3060 C.3     
  31 H31            3.2200    -0.4895    -0.4323 H       
  32 H32            3.2948     1.8946    -0.0329 H       
  33 H33            0.7188     5.8435    -0.6201 H       
  34 H34            3.3143     3.4041     1.7782 H       
  35 H35            4.8952     5.3172     1.8667 H       
  36 H36            5.2406    10.3560     1.2380 H       
  37 H37            5.2337    10.2353     3.0141 H       
  38 H38            4.4562     7.8987     2.8718 H       
  39 H39            3.3434     8.9690     1.9839 H       
  40 H40            4.4354     8.3796    -0.1443 H       
  41 H41            6.1746     6.5451     1.5711 H       
  42 H42            6.2324     6.6932    -0.2029 H       
  43 H43            8.0196     8.0408     0.9053 H       
  44 H44            6.8811     9.0637    -0.0038 H       
  45 H45           -2.9243    -0.2575     1.1059 H       
  46 H46           -2.3371     1.0453     0.0402 H       
  47 H47           -4.4094    -0.1389    -0.8259 H       
  48 H48           -3.0255    -0.1884    -1.9457 H       
  49 H49           -2.2965    -3.6615    -1.2248 H       
  50 H50           -1.7922    -2.2446    -2.1785 H       
  51 H51           -0.1908    -2.5330    -0.3744 H       
  52 H52           -1.5005    -2.6311     0.8308 H       
  53 H53           -0.6599     5.5175     1.4593 H       
  54 H54           -2.4358     6.2337    -0.2042 H       
  55 H55           -2.4402     4.5379    -0.9295 H       
  56 H56           -3.1211     3.5786     1.3178 H       
  57 H57           -3.1167     5.2743     2.0431 H       
@<TRIPOS>BOND
   1    1    2 1
   2    1    3 1
   3    1    7 2
   4    2    4 2
   5    2   22 1
   6    3    6 1
   7    3    9 1
   8    4    5 1
   9    5    6 2
  10    5   31 1
  11    6   32 1
  12    7    8 1
  13    8    9 2
  14    8   28 1
  15    9   11 1
  16   10   11 ar
  17   10   15 ar
  18   10   33 1
  19   11   12 ar
  20   12   13 ar
  21   12   34 1
  22   13   14 ar
  23   13   35 1
  24   14   15 ar
  25   14   18 1
  26   16   17 1
  27   16   21 1
  28   16   36 1
  29   16   37 1
  30   17   18 1
  31   17   38 1
  32   17   39 1
  33   18   19 1
  34   18   40 1
  35   19   20 1
  36   19   41 1
  37   19   42 1
  38   20   21 1
  39   20   43 1
  40   20   44 1
  41   22   23 1
  42   22   27 1
  43   23   24 1
  44   23   45 1
  45   23   46 1
  46   24   25 1
  47   24   47 1
  48   24   48 1
  49   25   26 1
  50   26   27 1
  51   26   49 1
  52   26   50 1
  53   27   51 1
  54   27   52 1
  55   28   29 1
  56   28   30 1
  57   28   53 1
  58   29   30 1
  59   29   54 1
  60   29   55 1
  61   30   56 1
  62   30   57 1

#	End of record

