#	Name: ASD01152244
#	Creating user name:	WinNT
#	Creation time:	15. 06. 2019 19:05

#	Modifying user name:	WinNT
#	Modification time:	15. 06. 2019 19:05

#	Program:	/corina/corina34_cracker 3.40 0067  02.08.2006

@<TRIPOS>MOLECULE
ASD01152244
  35   37    0    0    0
SMALL
NO_CHARGES


@<TRIPOS>ATOM
   1 C1            -2.0150     3.3167    -1.9226 C.1     
   2 C2            -1.0088     3.0600    -0.9366 C.ar    
   3 C3             0.1840     3.7840    -0.9486 C.ar    
   4 C4             1.1529     3.5301     0.0095 C.ar    
   5 C5             0.9348     2.5565     0.9777 C.ar    
   6 C6            -0.2465     1.8393     0.9897 C.ar    
   7 C7            -1.2202     2.0882     0.0438 C.ar    
   8 N8            -2.8133     3.5203    -2.7048 N.1     
   9 N9             3.5703     3.5715     0.0933 N.2     
  10 N10            2.3512     4.2536     0.0020 N.am    
  11 C11            2.3159     5.5945    -0.0934 C.2     
  12 N12            3.4503     6.3193    -0.1042 N.am    
  13 C13            4.6469     5.7021    -0.0182 C.2     
  14 C14            4.6910     4.2402     0.0864 C.2     
  15 O15            5.6769     6.3506    -0.0278 O.2     
  16 O16            1.2429     6.1611    -0.1714 O.2     
  17 Br17           6.3477     3.3368     0.2094 Br      
  18 C18            3.3854     7.7790    -0.2099 C.3     
  19 C19            3.3126     8.3799     1.1702 C.ar    
  20 C20            4.4747     8.7113     1.8417 C.ar    
  21 C21            4.4086     9.2624     3.1075 C.ar    
  22 C22            3.1791     9.4823     3.7025 C.ar    
  23 C23            2.0164     9.1504     3.0300 C.ar    
  24 C24            2.0837     8.6046     1.7620 C.ar    
  25 Cl25           3.0952    10.1739     5.2926 Cl      
  26 H26            0.3518     4.5394    -1.7019 H       
  27 H27            1.6914     2.3597     1.7229 H       
  28 H28           -0.4098     1.0840     1.7442 H       
  29 H29           -2.1437     1.5285     0.0591 H       
  30 H30            4.2762     8.1464    -0.7196 H       
  31 H31            2.4991     8.0632    -0.7771 H       
  32 H32            5.4344     8.5392     1.3772 H       
  33 H33            5.3165     9.5209     3.6321 H       
  34 H34            1.0564     9.3219     3.4940 H       
  35 H35            1.1760     8.3496     1.2352 H       
@<TRIPOS>BOND
   1    1    2 1
   2    1    8 3
   3    2    3 ar
   4    2    7 ar
   5    3    4 ar
   6    3   26 1
   7    4    5 ar
   8    4   10 1
   9    5    6 ar
  10    5   27 1
  11    6    7 ar
  12    6   28 1
  13    7   29 1
  14    9   10 1
  15    9   14 2
  16   10   11 am
  17   11   12 am
  18   11   16 2
  19   12   13 am
  20   12   18 1
  21   13   14 1
  22   13   15 2
  23   14   17 1
  24   18   19 1
  25   18   30 1
  26   18   31 1
  27   19   20 ar
  28   19   24 ar
  29   20   21 ar
  30   20   32 1
  31   21   22 ar
  32   21   33 1
  33   22   23 ar
  34   22   25 1
  35   23   24 ar
  36   23   34 1
  37   24   35 1

#	End of record

