#	Name: ASD01890422
#	Creating user name:	WinNT
#	Creation time:	15. 06. 2019 19:50

#	Modifying user name:	WinNT
#	Modification time:	15. 06. 2019 19:50

#	Program:	/corina/corina34_cracker 3.40 0067  02.08.2006

@<TRIPOS>MOLECULE
ASD01890422
  38   40    0    0    0
SMALL
NO_CHARGES


@<TRIPOS>ATOM
   1 C1            -0.0171     1.4075     0.0098 C.2     
   2 C2             0.0021    -0.0041     0.0020 C.2     
   3 C3             1.1887    -0.6678    -0.0129 C.2     
   4 O4             1.0297     2.0310     0.0031 O.2     
   5 C5            -1.3084     2.1298     0.0198 C.ar    
   6 C6            -1.3308     3.5254     0.0275 C.ar    
   7 C7            -2.5381     4.1927     0.0364 C.ar    
   8 C8            -3.7251     3.4817     0.0377 C.ar    
   9 C9            -3.7099     2.0981     0.0305 C.ar    
  10 C10           -2.5094     1.4186     0.0158 C.ar    
  11 C11           -5.0403     4.2173     0.0474 C.3     
  12 F12           -5.4530     4.4522    -1.2686 F       
  13 F13           -6.0021     3.4445     0.7069 F       
  14 F14           -4.8868     5.4383     0.7129 F       
  15 C15            1.2079    -2.0816    -0.0207 C.2     
  16 C16            2.3362    -2.8557    -0.0356 C.2     
  17 C17            2.0687    -4.2128    -0.0403 C.2     
  18 C18            0.7440    -4.5260    -0.0294 C.2     
  19 S19           -0.2135    -3.1147    -0.0050 S.3     
  20 C20            3.1375    -5.2424    -0.0565 C.ar    
  21 C21            2.8050    -6.5955    -0.0606 C.ar    
  22 C22            3.8030    -7.5487    -0.0762 C.ar    
  23 C23            5.1313    -7.1628    -0.0877 C.ar    
  24 C24            5.4670    -5.8210    -0.0837 C.ar    
  25 C25            4.4771    -4.8593    -0.0735 C.ar    
  26 H26           -0.9258    -0.5567     0.0079 H       
  27 H27            2.1165    -0.1152    -0.0188 H       
  28 H28           -0.4050     4.0815     0.0269 H       
  29 H29           -2.5569     5.2726     0.0427 H       
  30 H30           -4.6398     1.5489     0.0323 H       
  31 H31           -2.4988     0.3387     0.0054 H       
  32 H32            3.3361    -2.4476    -0.0435 H       
  33 H33            0.3522    -5.5324    -0.0311 H       
  34 H34            1.7682    -6.8978    -0.0513 H       
  35 H35            3.5464    -8.5977    -0.0790 H       
  36 H36            5.9091    -7.9120    -0.0995 H       
  37 H37            6.5057    -5.5252    -0.0928 H       
  38 H38            4.7403    -3.8119    -0.0750 H       
@<TRIPOS>BOND
   1    1    2 1
   2    1    4 2
   3    1    5 1
   4    2    3 2
   5    2   26 1
   6    3   15 1
   7    3   27 1
   8    5    6 ar
   9    5   10 ar
  10    6    7 ar
  11    6   28 1
  12    7    8 ar
  13    7   29 1
  14    8    9 ar
  15    8   11 1
  16    9   10 ar
  17    9   30 1
  18   10   31 1
  19   11   12 1
  20   11   13 1
  21   11   14 1
  22   15   16 2
  23   15   19 1
  24   16   17 1
  25   16   32 1
  26   17   18 2
  27   17   20 1
  28   18   19 1
  29   18   33 1
  30   20   21 ar
  31   20   25 ar
  32   21   22 ar
  33   21   34 1
  34   22   23 ar
  35   22   35 1
  36   23   24 ar
  37   23   36 1
  38   24   25 ar
  39   24   37 1
  40   25   38 1

#	End of record

