#	Name: ASD02670021
#	Creating user name:	WinNT
#	Creation time:	15. 06. 2019 20:26

#	Modifying user name:	WinNT
#	Modification time:	15. 06. 2019 20:26

#	Program:	/corina/corina34_cracker 3.40 0067  02.08.2006

@<TRIPOS>MOLECULE
ASD02670021
  49   52    0    0    0
SMALL
NO_CHARGES


@<TRIPOS>ATOM
   1 C1             0.0740     1.5084    -0.0269 C.3     
   2 C2            -1.0565    -4.3345     0.9729 C.ar    
   3 C3             0.1128    -4.2320     0.1948 C.ar    
   4 C4            -1.5342    -5.5984     1.3446 C.ar    
   5 C5             0.7796    -5.3901    -0.1954 C.ar    
   6 C6            -0.8632    -6.7210     0.9501 C.ar    
   7 C7             0.2921    -6.6212     0.1813 C.ar    
   8 N8             0.3480    -2.8935    -0.0191 N.pl3   
   9 C9            -0.6439    -2.1625     0.6053 C.2     
  10 C10           -1.5060    -3.0147     1.2191 C.2     
  11 C11           -0.7468    -0.6956     0.6104 C.2     
  12 O12           -1.6654    -0.1523     1.1943 O.2     
  13 N13            0.1765     0.0470    -0.0320 N.am    
  14 C14            1.4628     2.1564    -0.2099 C.3     
  15 C15            1.2142     3.3985    -1.0387 C.ar    
  16 C16           -0.0235     3.3137    -1.6479 C.ar    
  17 C17           -0.6915     2.0090    -1.2702 C.3     
  18 C18            2.0082     4.5147    -1.2432 C.ar    
  19 C19            1.5669     5.5426    -2.0531 C.ar    
  20 C20            0.3288     5.4578    -2.6624 C.ar    
  21 C21           -0.4639     4.3450    -2.4607 C.ar    
  22 C22           -0.5673     0.9988    -2.4125 C.3     
  23 C23           -1.4442     1.4439    -3.5846 C.3     
  24 C24           -1.3200     0.4337    -4.7269 C.3     
  25 C25           -2.1838     0.8721    -5.8814 C.2     
  26 O26           -2.8322     1.8882    -5.7989 O.2     
  27 O27           -2.2328     0.1337    -7.0012 O.3     
  28 F28           -1.3252    -7.9385     1.3098 F       
  29 H29           -0.3993     1.8588     0.8903 H       
  30 H30           -2.4301    -5.6846     1.9415 H       
  31 H31            1.6770    -5.3230    -0.7925 H       
  32 H32            0.8111    -7.5180    -0.1231 H       
  33 H33            1.0886    -2.5239    -0.5249 H       
  34 H34           -2.3811    -2.7356     1.7872 H       
  35 H35            0.9089    -0.3862    -0.4976 H       
  36 H36            1.8849     2.4260     0.7582 H       
  37 H37            2.1308     1.4764    -0.7385 H       
  38 H38           -1.7403     2.1778    -1.0260 H       
  39 H39            2.9755     4.5816    -0.7676 H       
  40 H40            2.1882     6.4119    -2.2100 H       
  41 H41           -0.0180     6.2608    -3.2959 H       
  42 H42           -1.4309     4.2795    -2.9371 H       
  43 H43            0.4718     0.9431    -2.7369 H       
  44 H44           -0.8931     0.0177    -2.0670 H       
  45 H45           -2.4834     1.4995    -3.2602 H       
  46 H46           -1.1184     2.4249    -3.9301 H       
  47 H47           -0.2809     0.3780    -5.0513 H       
  48 H48           -1.6458    -0.5474    -4.3814 H       
  49 H49           -2.8009     0.4552    -7.7146 H       
@<TRIPOS>BOND
   1    1   13 1
   2    1   14 1
   3    1   17 1
   4    1   29 1
   5    2    3 ar
   6    2    4 ar
   7    2   10 1
   8    3    5 ar
   9    3    8 1
  10    4    6 ar
  11    4   30 1
  12    5    7 ar
  13    5   31 1
  14    6    7 ar
  15    6   28 1
  16    7   32 1
  17    8    9 1
  18    8   33 1
  19    9   10 2
  20    9   11 1
  21   10   34 1
  22   11   12 2
  23   11   13 am
  24   13   35 1
  25   14   15 1
  26   14   36 1
  27   14   37 1
  28   15   16 ar
  29   15   18 ar
  30   16   17 1
  31   16   21 ar
  32   17   22 1
  33   17   38 1
  34   18   19 ar
  35   18   39 1
  36   19   20 ar
  37   19   40 1
  38   20   21 ar
  39   20   41 1
  40   21   42 1
  41   22   23 1
  42   22   43 1
  43   22   44 1
  44   23   24 1
  45   23   45 1
  46   23   46 1
  47   24   25 1
  48   24   47 1
  49   24   48 1
  50   25   26 2
  51   25   27 1
  52   27   49 1

#	End of record

