#	Name: ASD04590755
#	Creating user name:	WinNT
#	Creation time:	15. 06. 2019 20:51

#	Modifying user name:	WinNT
#	Modification time:	15. 06. 2019 20:51

#	Program:	/corina/corina34_cracker 3.40 0067  02.08.2006

@<TRIPOS>MOLECULE
ASD04590755
  51   53    0    0    0
SMALL
NO_CHARGES


@<TRIPOS>ATOM
   1 N1            -0.0159     1.3249     0.0093 N.ar    
   2 C2             0.0021    -0.0041     0.0020 C.ar    
   3 N3             1.1286    -0.6985    -0.0120 N.ar    
   4 C4             2.3050    -0.0778    -0.0199 C.ar    
   5 C5             2.3206     1.3340    -0.0129 C.ar    
   6 C6             1.1063     2.0218     0.0024 C.ar    
   7 N7             3.5997    -0.5149    -0.0342 N.pl3   
   8 C8             4.4692     0.5614    -0.0370 C.2     
   9 C9             3.7303     1.7361    -0.0241 C.2     
  10 C10            5.9288     0.4753    -0.0503 C.2     
  11 O11            6.5335    -0.7312    -0.0613 O.3     
  12 O12            6.5982     1.4912    -0.0515 O.2     
  13 C13            4.0085    -1.9217    -0.0447 C.3     
  14 C14            3.4729    -2.6356     1.2087 C.3     
  15 C15            2.5480    -3.7654     0.7110 C.3     
  16 C16            3.0424    -4.0549    -0.7281 C.3     
  17 C17            3.3904    -2.6426    -1.2605 C.3     
  18 S18           -1.5305    -0.8734     0.0120 S.3     
  19 C19            4.2425     3.0733    -0.0222 C.1     
  20 C20            4.6624     4.1697    -0.0206 C.1     
  21 C21            7.9624    -0.7406    -0.0740 C.3     
  22 C22           -2.6832     0.5219     0.0305 C.3     
  23 Si23           5.3419     5.9440    -0.0180 Si      
  24 C24            3.9239     7.1521     0.0014 C.3     
  25 C25            6.3984     6.2022     1.4947 C.3     
  26 C26            6.3699     6.2175    -1.5474 C.3     
  27 H27            1.0845     3.1016     0.0080 H       
  28 H28            5.0956    -1.9941    -0.0798 H       
  29 H29            4.2999    -3.0552     1.7815 H       
  30 H30            2.9088    -1.9354     1.8248 H       
  31 H31            2.6566    -4.6511     1.3370 H       
  32 H32            1.5105    -3.4313     0.6979 H       
  33 H33            3.9277    -4.6905    -0.7118 H       
  34 H34            2.2509    -4.5084    -1.3246 H       
  35 H35            2.4890    -2.1271    -1.5919 H       
  36 H36            4.1138    -2.7088    -2.0731 H       
  37 H37            8.3212    -0.2251    -0.9649 H       
  38 H38            8.3370    -0.2334     0.8150 H       
  39 H39            8.3189    -1.7707    -0.0820 H       
  40 H40           -3.7069     0.1474     0.0382 H       
  41 H41           -2.5100     1.1245     0.9221 H       
  42 H42           -2.5270     1.1340    -0.8578 H       
  43 H43            3.3224     6.9921     0.8963 H       
  44 H44            4.3137     8.1700     0.0029 H       
  45 H45            3.3058     7.0010    -0.8836 H       
  46 H46            7.2281     5.4953     1.4833 H       
  47 H47            6.7882     7.2201     1.4961 H       
  48 H48            5.7970     6.0421     2.3895 H       
  49 H49            5.7518     6.0665    -2.4324 H       
  50 H50            6.7598     7.2354    -1.5460 H       
  51 H51            7.1996     5.5107    -1.5588 H       
@<TRIPOS>BOND
   1    1    2 ar
   2    1    6 ar
   3    2    3 ar
   4    2   18 1
   5    3    4 ar
   6    4    5 ar
   7    4    7 1
   8    5    6 ar
   9    5    9 1
  10    6   27 1
  11    7    8 1
  12    7   13 1
  13    8    9 2
  14    8   10 1
  15    9   19 1
  16   10   11 1
  17   10   12 2
  18   11   21 1
  19   13   14 1
  20   13   17 1
  21   13   28 1
  22   14   15 1
  23   14   29 1
  24   14   30 1
  25   15   16 1
  26   15   31 1
  27   15   32 1
  28   16   17 1
  29   16   33 1
  30   16   34 1
  31   17   35 1
  32   17   36 1
  33   18   22 1
  34   19   20 3
  35   20   23 1
  36   21   37 1
  37   21   38 1
  38   21   39 1
  39   22   40 1
  40   22   41 1
  41   22   42 1
  42   23   24 1
  43   23   25 1
  44   23   26 1
  45   24   43 1
  46   24   44 1
  47   24   45 1
  48   25   46 1
  49   25   47 1
  50   25   48 1
  51   26   49 1
  52   26   50 1
  53   26   51 1

#	End of record

