#	Name: ASD04590272
#	Creating user name:	WinNT
#	Creation time:	15. 06. 2019 20:50

#	Modifying user name:	WinNT
#	Modification time:	15. 06. 2019 20:50

#	Program:	/corina/corina34_cracker 3.40 0067  02.08.2006

@<TRIPOS>MOLECULE
ASD04590272
  42   45    0    0    0
SMALL
NO_CHARGES


@<TRIPOS>ATOM
   1 C1            -0.0169     1.3972     0.0097 C.ar    
   2 C2             0.0021    -0.0041     0.0020 C.ar    
   3 C3             1.2150    -0.6876    -0.0133 C.ar    
   4 C4             2.4093     0.0325    -0.0209 C.ar    
   5 C5             2.3706     1.4403    -0.0129 C.ar    
   6 C6             1.1500     2.1051     0.0024 C.ar    
   7 N7             3.7157    -0.3323    -0.0361 N.2     
   8 C8             4.4703     0.7394    -0.0380 C.2     
   9 N9             3.6838     1.8607    -0.0240 N.pl3   
  10 C10            5.9477     0.7381    -0.0535 C.2     
  11 C11            6.7779    -0.4065    -0.0690 C.2     
  12 C12            8.0655     0.0170    -0.0804 C.2     
  13 N13            8.0571     1.3759    -0.0725 N.pl3   
  14 N14            6.7238     1.8042    -0.0610 N.2     
  15 N15            6.3458    -1.7426    -0.0713 N.am    
  16 C16            7.2489    -2.7429    -0.0869 C.2     
  17 C17            6.7950    -4.1466    -0.0894 C.ar    
  18 O18            8.4381    -2.4884    -0.0989 O.2     
  19 C19            6.5705    -4.8113    -1.2999 C.ar    
  20 C20            6.1457    -6.1265    -1.2929 C.ar    
  21 C21            5.9422    -6.7854    -0.0940 C.ar    
  22 C22            6.1617    -6.1359     1.1072 C.ar    
  23 F23            6.7678    -4.1692    -2.4720 F       
  24 C24            6.5922    -4.8225     1.1187 C.ar    
  25 F25            6.8114    -4.1917     2.2931 F       
  26 C26           -1.2667    -0.7571     0.0106 C.2     
  27 O27           -1.2522    -1.9719     0.0040 O.2     
  28 O28           -2.4415    -0.0975     0.0259 O.3     
  29 C29           -3.6496    -0.9029     0.0336 C.3     
  30 H30           -0.9616     1.9206     0.0170 H       
  31 H31            1.2308    -1.7675    -0.0189 H       
  32 H32            1.1249     3.1848     0.0084 H       
  33 H33            3.9933     2.7800    -0.0225 H       
  34 H34            8.9422    -0.6136    -0.0930 H       
  35 H35            8.8391     1.9498    -0.0776 H       
  36 H36            5.3973    -1.9457    -0.0618 H       
  37 H37            5.9719    -6.6412    -2.2264 H       
  38 H38            5.6095    -7.8129    -0.0958 H       
  39 H39            6.0000    -6.6578     2.0388 H       
  40 H40           -3.6581    -1.5367     0.9203 H       
  41 H41           -4.5219    -0.2493     0.0458 H       
  42 H42           -3.6758    -1.5271    -0.8595 H       
@<TRIPOS>BOND
   1    1    2 ar
   2    1    6 ar
   3    1   30 1
   4    2    3 ar
   5    2   26 1
   6    3    4 ar
   7    3   31 1
   8    4    5 ar
   9    4    7 1
  10    5    6 ar
  11    5    9 1
  12    6   32 1
  13    7    8 2
  14    8    9 1
  15    8   10 1
  16    9   33 1
  17   10   11 1
  18   10   14 2
  19   11   12 2
  20   11   15 1
  21   12   13 1
  22   12   34 1
  23   13   14 1
  24   13   35 1
  25   15   16 am
  26   15   36 1
  27   16   17 1
  28   16   18 2
  29   17   24 ar
  30   17   19 ar
  31   19   20 ar
  32   19   23 1
  33   20   21 ar
  34   20   37 1
  35   21   22 ar
  36   21   38 1
  37   22   24 ar
  38   22   39 1
  39   24   25 1
  40   26   27 2
  41   26   28 1
  42   28   29 1
  43   29   40 1
  44   29   41 1
  45   29   42 1

#	End of record

