#	Name: ASD03910077
#	Creating user name:	WinNT
#	Creation time:	15. 06. 2019 20:47

#	Modifying user name:	WinNT
#	Modification time:	15. 06. 2019 20:47

#	Program:	/corina/corina34_cracker 3.40 0067  02.08.2006

@<TRIPOS>MOLECULE
ASD03910077
  17    6    0    0    0
SMALL
NO_CHARGES


@<TRIPOS>ATOM
   1 K1             0.0000     0.0000     0.0000 Du      
   2 K2             5.0000     5.0000     5.0000 Du      
   3 K3            10.0000    10.0000    10.0000 Du      
   4 K4            15.0000    15.0000    15.0000 Du      
   5 Fe5           20.0000    20.0000    20.0000 Du      
   6 C6            25.0000    25.0000    25.0000 C.1     
   7 N7            25.0000    26.1360    25.0000 N.1     
   8 C8            30.0000    31.1360    30.0000 C.1     
   9 N9            30.0000    32.2720    30.0000 N.1     
  10 C10           35.0000    37.2720    35.0000 C.1     
  11 N11           35.0000    38.4080    35.0000 N.1     
  12 C12           40.0000    43.4080    40.0000 C.1     
  13 N13           40.0000    44.5440    40.0000 N.1     
  14 C14           45.0000    49.5440    45.0000 C.1     
  15 N15           45.0000    50.6800    45.0000 N.1     
  16 C16           50.0000    55.6800    50.0000 C.1     
  17 N17           50.0000    56.8160    50.0000 N.1     
@<TRIPOS>BOND
   1    6    7 3
   2    8    9 3
   3   10   11 3
   4   12   13 3
   5   14   15 3
   6   16   17 3

#	End of record

