#	Name: ASD01180311
#	Creating user name:	WinNT
#	Creation time:	15. 06. 2019 19:07

#	Modifying user name:	WinNT
#	Modification time:	15. 06. 2019 19:07

#	Program:	/corina/corina34_cracker 3.40 0067  02.08.2006

@<TRIPOS>MOLECULE
ASD01180311
  24   25    0    0    0
SMALL
NO_CHARGES


@<TRIPOS>ATOM
   1 C1            -0.0179     1.4651     0.0101 C.2     
   2 C2             0.0021    -0.0041     0.0020 C.ar    
   3 C3            -1.1995    -0.7227     0.0096 C.ar    
   4 C4            -1.1757    -2.0987     0.0015 C.ar    
   5 C5             0.0397    -2.7756    -0.0137 C.ar    
   6 C6             1.2362    -2.0659    -0.0213 C.ar    
   7 C7             1.2226    -0.6897    -0.0192 C.ar    
   8 N8             0.0586    -4.1729    -0.0210 N.pl3   
   9 C9             1.1670    -4.9584    -0.0357 C.2     
  10 C10            0.7555    -6.2470    -0.0377 C.2     
  11 C11           -0.6441    -6.2533    -0.0238 C.2     
  12 N12           -1.0619    -5.0137    -0.0082 N.2     
  13 C13           -1.5205    -7.4793    -0.0213 C.3     
  14 F14           -1.7785    -7.8654     1.2983 F       
  15 F15           -2.7274    -7.1911    -0.6674 F       
  16 F16           -0.8690    -8.5196    -0.6927 F       
  17 O17            1.0241     2.0858     0.0035 O.2     
  18 H18           -0.9604     1.9923     0.0174 H       
  19 H19           -2.1434    -0.1981     0.0222 H       
  20 H20           -2.1021    -2.6539     0.0074 H       
  21 H21            2.1773    -2.5957    -0.0332 H       
  22 H22            2.1519    -0.1396    -0.0296 H       
  23 H23            2.1913    -4.6160    -0.0446 H       
  24 H24            1.3944    -7.1177    -0.0486 H       
@<TRIPOS>BOND
   1    1    2 1
   2    1   17 2
   3    1   18 1
   4    2    3 ar
   5    2    7 ar
   6    3    4 ar
   7    3   19 1
   8    4    5 ar
   9    4   20 1
  10    5    6 ar
  11    5    8 1
  12    6    7 ar
  13    6   21 1
  14    7   22 1
  15    8    9 1
  16    8   12 1
  17    9   10 2
  18    9   23 1
  19   10   11 1
  20   10   24 1
  21   11   12 2
  22   11   13 1
  23   13   14 1
  24   13   15 1
  25   13   16 1

#	End of record

