#	Name: ASD01410512
#	Creating user name:	WinNT
#	Creation time:	15. 06. 2019 19:18

#	Modifying user name:	WinNT
#	Modification time:	15. 06. 2019 19:18

#	Program:	/corina/corina34_cracker 3.40 0067  02.08.2006

@<TRIPOS>MOLECULE
ASD01410512
  64   67    0    0    0
SMALL
NO_CHARGES


@<TRIPOS>ATOM
   1 C1             5.1316     6.4396     1.2707 C.ar    
   2 C2             5.6281     6.3819    -0.0241 C.ar    
   3 C3             6.3048     5.2516    -0.4385 C.ar    
   4 N4             6.4829     4.2321     0.3796 N.ar    
   5 C5             6.0246     4.2496     1.6206 C.ar    
   6 C6             5.3348     5.3538     2.1047 C.ar    
   7 O7             6.2303     3.1790     2.4279 O.3     
   8 C8             6.8186     2.0770     1.8898 C.ar    
   9 C9             8.2047     2.0203     1.7668 C.ar    
  10 C10            8.8119     0.9043     1.2214 C.ar    
  11 C11            8.0422    -0.1673     0.7928 C.ar    
  12 C12            6.6445    -0.1152     0.9146 C.ar    
  13 C13            6.0398     1.0155     1.4722 C.ar    
  14 F14            8.9595     3.0609     2.1820 F       
  15 N15            8.6542    -1.2915     0.2429 N.am    
  16 C16            9.3064    -2.1612     1.0396 C.2     
  17 C17            8.5889    -1.5283    -1.2013 C.3     
  18 O18            9.9309    -3.0826     0.5508 O.2     
  19 C19            9.2622    -1.9949     2.5072 C.ar    
  20 C20           10.3441    -2.4000     3.2914 C.ar    
  21 C21           10.2968    -2.2421     4.6605 C.ar    
  22 C22            9.1793    -1.6836     5.2579 C.ar    
  23 C23            8.1031    -1.2799     4.4855 C.ar    
  24 C24            8.1409    -1.4267     3.1148 C.ar    
  25 C25            5.4305     7.5401    -0.9678 C.3     
  26 N26            6.5557     8.4697    -0.8423 N.pl3   
  27 C27            9.9886    -1.3922    -1.8042 C.3     
  28 C28            8.0557    -2.9382    -1.4634 C.3     
  29 Br29           9.1223    -1.4719     7.1361 Br      
  30 C30           11.7229     0.2034    -2.2416 C.3     
  31 O31           10.4202    -0.0336    -1.7044 O.3     
  32 N32            6.5992     9.4574    -0.0199 N.2     
  33 N33            7.6369     8.4061    -1.5357 N.2     
  34 C34            8.4305     9.3873    -1.1704 C.2     
  35 C35            7.7457    10.0810    -0.1700 C.2     
  36 C36            4.8146     5.3693     3.5189 C.3     
  37 F37            4.1614     6.5823     3.7623 F       
  38 F38            3.9160     4.3119     3.6969 F       
  39 F39            5.8834     5.2281     4.4105 F       
  40 C40            5.8197    -1.2479     0.4619 C.2     
  41 O41            6.3509    -2.2726     0.0815 O.2     
  42 O42            4.4756    -1.1482     0.4694 O.3     
  43 H43            4.6027     7.3137     1.6209 H       
  44 H44            6.6928     5.2015    -1.4451 H       
  45 H45            9.8872     0.8670     1.1286 H       
  46 H46            4.9651     1.0619     1.5690 H       
  47 H47            7.9232    -0.7970    -1.6597 H       
  48 H48           11.2159    -2.8364     2.8267 H       
  49 H49           11.1330    -2.5551     5.2682 H       
  50 H50            7.2342    -0.8453     4.9572 H       
  51 H51            7.3010    -1.1115     2.5135 H       
  52 H52            5.3778     7.1696    -1.9916 H       
  53 H53            4.5032     8.0565    -0.7201 H       
  54 H54           10.6820    -2.0345    -1.2614 H       
  55 H55            9.9630    -1.6892    -2.8527 H       
  56 H56            6.9670    -2.9307    -1.4096 H       
  57 H57            8.3682    -3.2664    -2.4547 H       
  58 H58            8.4518    -3.6219    -0.7125 H       
  59 H59           12.4524    -0.4059    -1.7079 H       
  60 H60           11.7334    -0.0605    -3.2991 H       
  61 H61           11.9768     1.2573    -2.1276 H       
  62 H62            9.4125     9.6097    -1.5610 H       
  63 H63            8.0882    10.9520     0.3689 H       
  64 H64            3.9766    -1.9178     0.1632 H       
@<TRIPOS>BOND
   1    1    2 ar
   2    1    6 ar
   3    1   43 1
   4    2    3 ar
   5    2   25 1
   6    3    4 ar
   7    3   44 1
   8    4    5 ar
   9    5    6 ar
  10    5    7 1
  11    6   36 1
  12    7    8 1
  13    8    9 ar
  14    8   13 ar
  15    9   10 ar
  16    9   14 1
  17   10   11 ar
  18   10   45 1
  19   11   12 ar
  20   11   15 1
  21   12   13 ar
  22   12   40 1
  23   13   46 1
  24   15   16 am
  25   15   17 1
  26   16   18 2
  27   16   19 1
  28   17   28 1
  29   17   27 1
  30   17   47 1
  31   19   20 ar
  32   19   24 ar
  33   20   21 ar
  34   20   48 1
  35   21   22 ar
  36   21   49 1
  37   22   23 ar
  38   22   29 1
  39   23   24 ar
  40   23   50 1
  41   24   51 1
  42   25   26 1
  43   25   52 1
  44   25   53 1
  45   26   33 1
  46   26   32 1
  47   27   31 1
  48   27   54 1
  49   27   55 1
  50   28   56 1
  51   28   57 1
  52   28   58 1
  53   30   31 1
  54   30   59 1
  55   30   60 1
  56   30   61 1
  57   32   35 2
  58   33   34 2
  59   34   35 1
  60   34   62 1
  61   35   63 1
  62   36   37 1
  63   36   38 1
  64   36   39 1
  65   40   41 2
  66   40   42 1
  67   42   64 1

#	End of record

