#	Name: ASD01812962
#	Creating user name:	WinNT
#	Creation time:	15. 06. 2019 19:29

#	Modifying user name:	WinNT
#	Modification time:	15. 06. 2019 19:29

#	Program:	/corina/corina34_cracker 3.40 0067  02.08.2006

@<TRIPOS>MOLECULE
ASD01812962
  47   51    0    0    0
SMALL
NO_CHARGES


@<TRIPOS>ATOM
   1 C1            -0.0166     1.3763     0.0096 C.ar    
   2 C2             0.0021    -0.0041     0.0020 C.ar    
   3 C3             1.2089    -0.6873    -0.0128 C.ar    
   4 C4             2.3943     0.0073    -0.0199 C.ar    
   5 C5             2.3944     1.4054    -0.0129 C.ar    
   6 C6             1.1722     2.0915     0.0021 C.ar    
   7 C7             3.8414    -0.4181    -0.0351 C.3     
   8 N8             4.6316     0.8184    -0.0360 N.am    
   9 C9             3.7919     1.8680    -0.0231 C.2     
  10 C10            6.0945     0.8961    -0.0484 C.3     
  11 C11            6.5837     0.9297    -1.4733 C.ar    
  12 O12            1.1518     3.4478     0.0092 O.3     
  13 O13            4.1375     3.0337    -0.0204 O.2     
  14 C14            6.7442     2.1417    -2.1194 C.ar    
  15 C15            7.1924     2.1756    -3.4254 C.ar    
  16 C16            7.4820     0.9913    -4.0895 C.ar    
  17 C17            7.3198    -0.2241    -3.4382 C.ar    
  18 C18            6.8767    -0.2513    -2.1303 C.ar    
  19 C19           -0.0570     4.0673     0.0236 C.ar    
  20 N20            8.1442     2.1717    -6.1888 N.2     
  21 N21            7.9366     1.0224    -5.4152 N.pl3   
  22 C22            8.2532    -0.0516    -6.1734 C.2     
  23 C23            8.6478     0.4022    -7.3857 C.2     
  24 C24            8.5702     1.7992    -7.3689 C.2     
  25 C25           -0.6819     4.3873     1.2276 C.ar    
  26 C26           -1.9117     5.0176     1.1994 C.ar    
  27 N27           -2.4927     5.3157     0.0528 N.ar    
  28 C28           -1.9333     5.0293    -1.1074 C.ar    
  29 C29           -0.7017     4.4046    -1.1651 C.ar    
  30 F30           -0.1330     4.1204    -2.3571 F       
  31 F31           -0.0940     4.0852     2.4059 F       
  32 H32           -0.9603     1.9015     0.0169 H       
  33 H33           -0.9272    -0.5544     0.0080 H       
  34 H34            1.2169    -1.7673    -0.0183 H       
  35 H35            4.0682    -1.0071     0.8535 H       
  36 H36            4.0521    -0.9981    -0.9336 H       
  37 H37            6.4146     1.8016     0.4671 H       
  38 H38            6.5090     0.0242     0.4577 H       
  39 H39            6.5185     3.0626    -1.6024 H       
  40 H40            7.3173     3.1225    -3.9296 H       
  41 H41            7.5439    -1.1470    -3.9523 H       
  42 H42            6.7549    -1.1962    -1.6215 H       
  43 H43            8.2009    -1.0857    -5.8665 H       
  44 H44            8.9667    -0.2064    -8.2189 H       
  45 H45            8.8190     2.4568    -8.1886 H       
  46 H46           -2.4034     5.2690     2.1275 H       
  47 H47           -2.4423     5.2900    -2.0236 H       
@<TRIPOS>BOND
   1    1    2 ar
   2    1    6 ar
   3    1   32 1
   4    2    3 ar
   5    2   33 1
   6    3    4 ar
   7    3   34 1
   8    4    7 1
   9    4    5 ar
  10    5    6 ar
  11    5    9 1
  12    6   12 1
  13    7    8 1
  14    7   35 1
  15    7   36 1
  16    8    9 am
  17    8   10 1
  18    9   13 2
  19   10   11 1
  20   10   37 1
  21   10   38 1
  22   11   14 ar
  23   11   18 ar
  24   12   19 1
  25   14   15 ar
  26   14   39 1
  27   15   16 ar
  28   15   40 1
  29   16   17 ar
  30   16   21 1
  31   17   18 ar
  32   17   41 1
  33   18   42 1
  34   19   25 ar
  35   19   29 ar
  36   20   21 1
  37   20   24 2
  38   21   22 1
  39   22   23 2
  40   22   43 1
  41   23   24 1
  42   23   44 1
  43   24   45 1
  44   25   26 ar
  45   25   31 1
  46   26   27 ar
  47   26   46 1
  48   27   28 ar
  49   28   29 ar
  50   28   47 1
  51   29   30 1

#	End of record

