#	Name: ASD09080131
#	Creating user name:	WinNT
#	Creation time:	15. 06. 2019 21:20

#	Modifying user name:	WinNT
#	Modification time:	15. 06. 2019 21:20

#	Program:	/corina/corina34_cracker 3.40 0067  02.08.2006

@<TRIPOS>MOLECULE
ASD09080131
  61   62    0    0    0
SMALL
NO_CHARGES


@<TRIPOS>ATOM
   1 C1            -0.0167     1.3772     0.0096 C.ar    
   2 C2             0.0021    -0.0041     0.0020 C.ar    
   3 C3            -1.1962    -0.7147     0.0101 C.ar    
   4 C4            -2.4082    -0.0277     0.0258 C.ar    
   5 C5            -2.4165     1.3537     0.0333 C.ar    
   6 C6            -1.2232     2.0552     0.0306 C.ar    
   7 Cl7            1.4756     2.2642     0.0001 Cl      
   8 Cl8           -3.9258     2.2111     0.0523 Cl      
   9 C9            -1.1817    -2.1986     0.0015 C.ar    
  10 C10           -2.3800    -2.9096     0.0096 C.ar    
  11 C11            0.0301    -2.8859    -0.0204 C.ar    
  12 C12            0.0377    -4.2660    -0.0283 C.ar    
  13 C13           -1.1547    -4.9669    -0.0144 C.ar    
  14 C14           -2.3607    -4.2896     0.0016 C.ar    
  15 C15           -1.1400    -6.4738    -0.0231 C.3     
  16 C16           -1.1135    -6.9918     1.4163 C.3     
  17 C17           -1.2242    -8.5178     1.4112 C.3     
  18 N18            0.1441    -6.5956     2.0548 N.am    
  19 C19           -1.1977    -9.0359     2.8506 C.3     
  20 O20           -2.4509    -8.9043     0.7884 O.3     
  21 C21           -1.4298   -10.5249     2.8529 C.2     
  22 C22           -0.2958   -11.4647     2.5336 C.3     
  23 O23           -2.5244   -10.9650     3.1105 O.2     
  24 C24            1.3200    -7.0057     1.5394 C.2     
  25 C25            2.6137    -6.5982     2.1963 C.3     
  26 O26            1.3371    -7.7028     0.5471 O.2     
  27 O27            3.7121    -7.1531     1.4700 O.3     
  28 C28            4.9928    -6.8251     2.0126 C.3     
  29 C29           -0.7952   -12.9092     2.6045 C.3     
  30 C30            0.3561   -13.8633     2.2804 C.3     
  31 C31           -0.1358   -15.2861     2.3502 C.2     
  32 O32            0.7071   -16.3006     2.1011 O.3     
  33 O33           -1.2889   -15.5135     2.6305 O.2     
  34 O34           -2.2250    -8.3925     3.6074 O.3     
  35 H35            0.9441    -0.5322    -0.0105 H       
  36 H36           -3.3397    -0.5743     0.0318 H       
  37 H37           -1.2338     3.1351     0.0364 H       
  38 H38           -3.3222    -2.3818     0.0225 H       
  39 H39            0.9617    -2.3396    -0.0316 H       
  40 H40            0.9765    -4.7998    -0.0457 H       
  41 H41           -3.2888    -4.8418     0.0127 H       
  42 H42           -2.0339    -6.8430    -0.5257 H       
  43 H43           -0.2542    -6.8254    -0.5522 H       
  44 H44           -1.9513    -6.5686     1.9702 H       
  45 H45           -0.3863    -8.9411     0.8572 H       
  46 H46            0.1305    -6.0381     2.8485 H       
  47 H47           -0.2274    -8.8187     3.2971 H       
  48 H48           -3.2407    -8.5623     1.2293 H       
  49 H49            0.0761   -11.2577     1.5301 H       
  50 H50            0.5083   -11.3224     3.2556 H       
  51 H51            2.6926    -5.5110     2.1999 H       
  52 H52            2.6326    -6.9672     3.2217 H       
  53 H53            5.7730    -7.2835     1.4051 H       
  54 H54            5.1210    -5.7426     2.0125 H       
  55 H55            5.0610    -7.1989     3.0343 H       
  56 H56           -1.1671   -13.1162     3.6080 H       
  57 H57           -1.5993   -13.0515     1.8825 H       
  58 H58            0.7280   -13.6563     1.2769 H       
  59 H59            1.1602   -13.7210     3.0024 H       
  60 H60            0.3456   -17.1957     2.1580 H       
  61 H61           -3.1174    -8.5428     3.2664 H       
@<TRIPOS>BOND
   1    1    2 ar
   2    1    7 1
   3    1    6 ar
   4    2    3 ar
   5    2   35 1
   6    3    4 ar
   7    3    9 1
   8    4    5 ar
   9    4   36 1
  10    5    6 ar
  11    5    8 1
  12    6   37 1
  13    9   10 ar
  14    9   11 ar
  15   10   14 ar
  16   10   38 1
  17   11   12 ar
  18   11   39 1
  19   12   13 ar
  20   12   40 1
  21   13   14 ar
  22   13   15 1
  23   14   41 1
  24   15   16 1
  25   15   42 1
  26   15   43 1
  27   16   17 1
  28   16   18 1
  29   16   44 1
  30   17   19 1
  31   17   20 1
  32   17   45 1
  33   18   24 am
  34   18   46 1
  35   19   21 1
  36   19   34 1
  37   19   47 1
  38   20   48 1
  39   21   22 1
  40   21   23 2
  41   22   29 1
  42   22   49 1
  43   22   50 1
  44   24   25 1
  45   24   26 2
  46   25   27 1
  47   25   51 1
  48   25   52 1
  49   27   28 1
  50   28   53 1
  51   28   54 1
  52   28   55 1
  53   29   30 1
  54   29   56 1
  55   29   57 1
  56   30   31 1
  57   30   58 1
  58   30   59 1
  59   31   32 1
  60   31   33 2
  61   32   60 1
  62   34   61 1

#	End of record

