#	Name: ASD03910109
#	Creating user name:	WinNT
#	Creation time:	15. 06. 2019 20:47

#	Modifying user name:	WinNT
#	Modification time:	15. 06. 2019 20:47

#	Program:	/corina/corina34_cracker 3.40 0067  02.08.2006

@<TRIPOS>MOLECULE
ASD03910109
  50   52    0    0    0
SMALL
NO_CHARGES


@<TRIPOS>ATOM
   1 C1            -0.0173     1.4248     0.0099 C.3     
   2 O2             0.0021    -0.0041     0.0020 O.3     
   3 C3            -1.1961    -0.6353     0.0101 C.ar    
   4 C4            -1.2501    -2.0393     0.0030 C.ar    
   5 C5            -2.4842    -2.6837     0.0114 C.ar    
   6 C6            -3.6590    -1.9294     0.0266 C.ar    
   7 C7            -3.5918    -0.5288     0.0335 C.ar    
   8 C8            -2.3715     0.1061     0.0310 C.ar    
   9 C9            -4.9647    -2.6028     0.0350 C.2     
  10 O10           -5.9850    -1.9472     0.0483 O.2     
  11 C11           -0.0040    -2.8275    -0.0136 C.2     
  12 O12            1.0719    -2.2630    -0.0212 O.2     
  13 O13           -0.0585    -4.1738    -0.0203 O.3     
  14 O14            5.3846     4.8538    -0.0238 O.3     
  15 C15            6.5828     5.4850    -0.0319 C.ar    
  16 C16            6.6368     6.8890    -0.0253 C.ar    
  17 C17            7.8709     7.5334    -0.0337 C.ar    
  18 C18            9.0457     6.7792    -0.0486 C.ar    
  19 C19            8.9786     5.3785    -0.0550 C.ar    
  20 C20            7.7583     4.7436    -0.0410 C.ar    
  21 C21           10.3514     7.4525    -0.0580 C.2     
  22 O22           11.3717     6.7969    -0.0709 O.2     
  23 C23            5.3908     7.6773    -0.0100 C.2     
  24 O24            4.3148     7.1128    -0.0032 O.2     
  25 O25            5.4452     9.0236    -0.0038 O.3     
  26 C26            5.4040     3.4250    -0.0311 C.3     
  27 C27            3.9902     2.9033    -0.0204 C.ar    
  28 C28            3.3305     2.6702    -1.2126 C.ar    
  29 C29            2.0335     2.1921    -1.2028 C.ar    
  30 C30            1.3965     1.9464    -0.0008 C.ar    
  31 C31            2.0562     2.1796     1.1914 C.ar    
  32 C32            3.3551     2.6527     1.1815 C.ar    
  33 H33           -0.5445     1.7859    -0.8732 H       
  34 H34           -0.5275     1.7763     0.9067 H       
  35 H35           -2.5325    -3.7626     0.0057 H       
  36 H36           -4.5013     0.0535     0.0453 H       
  37 H37           -2.3266     1.1851     0.0412 H       
  38 H38           -5.0160    -3.6815     0.0293 H       
  39 H39            0.7846    -4.6473    -0.0312 H       
  40 H40            7.9192     8.6123    -0.0290 H       
  41 H41            9.8881     4.7962    -0.0665 H       
  42 H42            7.7135     3.6645    -0.0412 H       
  43 H43           10.4027     8.5313    -0.0534 H       
  44 H44            4.6021     9.4970     0.0062 H       
  45 H45            5.9143     3.0732    -0.9278 H       
  46 H46            5.9311     3.0642     0.8521 H       
  47 H47            3.8282     2.8621    -2.1517 H       
  48 H48            1.5178     2.0105    -2.1342 H       
  49 H49            1.5584     1.9881     2.1304 H       
  50 H50            3.8705     2.8350     2.1129 H       
@<TRIPOS>BOND
   1    1    2 1
   2    1   30 1
   3    1   33 1
   4    1   34 1
   5    2    3 1
   6    3    4 ar
   7    3    8 ar
   8    4    5 ar
   9    4   11 1
  10    5    6 ar
  11    5   35 1
  12    6    7 ar
  13    6    9 1
  14    7    8 ar
  15    7   36 1
  16    8   37 1
  17    9   10 2
  18    9   38 1
  19   11   12 2
  20   11   13 1
  21   13   39 1
  22   14   15 1
  23   14   26 1
  24   15   16 ar
  25   15   20 ar
  26   16   17 ar
  27   16   23 1
  28   17   18 ar
  29   17   40 1
  30   18   19 ar
  31   18   21 1
  32   19   20 ar
  33   19   41 1
  34   20   42 1
  35   21   22 2
  36   21   43 1
  37   23   24 2
  38   23   25 1
  39   25   44 1
  40   26   27 1
  41   26   45 1
  42   26   46 1
  43   27   28 ar
  44   27   32 ar
  45   28   29 ar
  46   28   47 1
  47   29   30 ar
  48   29   48 1
  49   30   31 ar
  50   31   32 ar
  51   31   49 1
  52   32   50 1

#	End of record

