#	Name: ASD03080118
#	Creating user name:	WinNT
#	Creation time:	15. 06. 2019 20:26

#	Modifying user name:	WinNT
#	Modification time:	15. 06. 2019 20:26

#	Program:	/corina/corina34_cracker 3.40 0067  02.08.2006

@<TRIPOS>MOLECULE
ASD03080118
  26   28    0    0    0
SMALL
NO_CHARGES


@<TRIPOS>ATOM
   1 F1             0.0021    -0.0041     0.0020 F       
   2 C2            -0.0162     1.3468     0.0094 C.ar    
   3 C3             1.1741     2.0543     0.0019 C.ar    
   4 C4             1.1588     3.4356     0.0090 C.ar    
   5 C5            -0.0508     4.1156     0.0237 C.ar    
   6 C6            -1.2459     3.4043     0.0313 C.ar    
   7 C7            -1.2255     2.0217     0.0188 C.ar    
   8 F8            -2.4252     4.0633     0.0461 F       
   9 N9            -0.0680     5.5182     0.0314 N.pl3   
  10 N10            0.9728     6.2756     0.0255 N.2     
  11 N11            0.5939     7.5085     0.0350 N.2     
  12 C12           -0.7465     7.5129     0.0474 C.2     
  13 N13           -1.1284     6.2505     0.0399 N.2     
  14 C14           -1.6293     8.7062     0.0618 C.ar    
  15 C15           -1.0840     9.9924     0.0630 C.ar    
  16 C16           -1.9499    11.0728     0.0761 C.ar    
  17 C17           -3.3139    10.8462     0.0876 C.ar    
  18 N18           -3.7993     9.6196     0.0866 N.ar    
  19 C19           -3.0149     8.5616     0.0684 C.ar    
  20 H20            2.1157     1.5255    -0.0092 H       
  21 H21            2.0880     3.9861     0.0034 H       
  22 H22           -2.1528     1.4681     0.0244 H       
  23 H23           -0.0142    10.1403     0.0542 H       
  24 H24           -1.5642    12.0816     0.0778 H       
  25 H25           -3.9923    11.6865     0.0979 H       
  26 H26           -3.4497     7.5730     0.0682 H       
@<TRIPOS>BOND
   1    1    2 1
   2    2    3 ar
   3    2    7 ar
   4    3    4 ar
   5    3   20 1
   6    4    5 ar
   7    4   21 1
   8    5    6 ar
   9    5    9 1
  10    6    7 ar
  11    6    8 1
  12    7   22 1
  13    9   10 1
  14    9   13 1
  15   10   11 2
  16   11   12 1
  17   12   13 2
  18   12   14 1
  19   14   15 ar
  20   14   19 ar
  21   15   16 ar
  22   15   23 1
  23   16   17 ar
  24   16   24 1
  25   17   18 ar
  26   17   25 1
  27   18   19 ar
  28   19   26 1

#	End of record

