#	Name: ASD02560506
#	Creating user name:	WinNT
#	Creation time:	15. 06. 2019 20:25

#	Modifying user name:	WinNT
#	Modification time:	15. 06. 2019 20:25

#	Program:	/corina/corina34_cracker 3.40 0067  02.08.2006

@<TRIPOS>MOLECULE
ASD02560506
  42   44    0    0    0
SMALL
NO_CHARGES


@<TRIPOS>ATOM
   1 C1            -0.1668     1.3978    -1.0738 C.2     
   2 C2            -0.1497    -0.0085    -1.0781 C.2     
   3 C3            -1.2606    -0.7045    -0.7635 C.2     
   4 N4            -2.4195    -0.0547    -0.4359 N.pl3   
   5 C5            -2.4660     1.3204    -0.4228 C.2     
   6 C6            -1.3086     2.0586    -0.7452 C.2     
   7 C7            -3.6641    -0.5006    -0.0833 C.2     
   8 C8            -4.4336     0.5955     0.1347 C.2     
   9 N9            -3.6896     1.6872    -0.0762 N.2     
  10 C10           -5.8836     0.5849     0.5451 C.3     
  11 N11           -4.0678    -1.8367     0.0308 N.3     
  12 C12           -2.9223    -2.7462    -0.1058 C.3     
  13 C13           -6.0390     1.3024     1.8875 C.3     
  14 C14           -3.2190    -4.0780     0.6055 C.3     
  15 C15           -6.7194     1.3028    -0.5166 C.3     
  16 C16           -3.1562    -5.1779    -0.4744 C.3     
  17 C17           -2.2602    -4.5714    -1.5827 C.3     
  18 C18           -2.6895    -3.0832    -1.5931 C.3     
  19 C19            1.0784     2.1699    -1.4264 C.3     
  20 H20            0.7583    -0.5337    -1.3351 H       
  21 H21           -1.2358    -1.7842    -0.7705 H       
  22 H22           -1.3311     3.1384    -0.7384 H       
  23 H23           -6.2263    -0.4453     0.6419 H       
  24 H24           -4.5532    -1.9947     0.9011 H       
  25 H25           -2.0290    -2.2875     0.3181 H       
  26 H26           -5.6963     2.3326     1.7907 H       
  27 H27           -7.0878     1.2947     2.1843 H       
  28 H28           -5.4436     0.7910     2.6438 H       
  29 H29           -2.4693    -4.2660     1.3740 H       
  30 H30           -4.2130    -4.0495     1.0520 H       
  31 H31           -7.7681     1.2951    -0.2198 H       
  32 H32           -6.3767     2.3330    -0.6134 H       
  33 H33           -6.6087     0.7917    -1.4729 H       
  34 H34           -2.7034    -6.0835    -0.0707 H       
  35 H35           -4.1527    -5.3889    -0.8624 H       
  36 H36           -1.2060    -4.6674    -1.3228 H       
  37 H37           -2.4660    -5.0396    -2.5452 H       
  38 H38           -3.6107    -2.9559    -2.1618 H       
  39 H39           -1.8961    -2.4601    -2.0058 H       
  40 H40            1.8853     1.4735    -1.6544 H       
  41 H41            0.8830     2.7970    -2.2963 H       
  42 H42            1.3676     2.7976    -0.5835 H       
@<TRIPOS>BOND
   1    1    2 1
   2    1   19 1
   3    1    6 2
   4    2    3 2
   5    2   20 1
   6    3    4 1
   7    3   21 1
   8    4    5 1
   9    4    7 1
  10    5    6 1
  11    5    9 2
  12    6   22 1
  13    7    8 2
  14    7   11 1
  15    8    9 1
  16    8   10 1
  17   10   13 1
  18   10   15 1
  19   10   23 1
  20   11   12 1
  21   11   24 1
  22   12   14 1
  23   12   18 1
  24   12   25 1
  25   13   26 1
  26   13   27 1
  27   13   28 1
  28   14   16 1
  29   14   29 1
  30   14   30 1
  31   15   31 1
  32   15   32 1
  33   15   33 1
  34   16   17 1
  35   16   34 1
  36   16   35 1
  37   17   18 1
  38   17   36 1
  39   17   37 1
  40   18   38 1
  41   18   39 1
  42   19   40 1
  43   19   41 1
  44   19   42 1

#	End of record

