#	Name: ASD01900161
#	Creating user name:	WinNT
#	Creation time:	15. 06. 2019 19:51

#	Modifying user name:	WinNT
#	Modification time:	15. 06. 2019 19:51

#	Program:	/corina/corina34_cracker 3.40 0067  02.08.2006

@<TRIPOS>MOLECULE
ASD01900161
  39   41    0    0    0
SMALL
NO_CHARGES


@<TRIPOS>ATOM
   1 C1             0.0377     1.3062     0.1281 C.ar    
   2 C2            -1.1248     1.6635    -0.5357 C.ar    
   3 C3            -1.1567     2.8430    -1.2635 C.ar    
   4 C4            -0.0152     3.6279    -1.3007 C.ar    
   5 C5             1.1186     3.2066    -0.6091 C.ar    
   6 N6             1.1073     2.0699     0.0761 N.ar    
   7 C7             2.3468     4.0341    -0.6388 C.2     
   8 N8             3.4467     3.6318     0.0282 N.am    
   9 O9             2.3627     5.0758    -1.2646 O.2     
  10 C10            4.6364     4.3613    -0.0794 C.ar    
  11 C11            4.5951     5.7459    -0.1796 C.ar    
  12 C12            5.7694     6.4658    -0.2854 C.ar    
  13 C13            6.9916     5.8040    -0.2915 C.ar    
  14 C14            7.0318     4.4194    -0.1913 C.ar    
  15 C15            5.8585     3.7008    -0.0803 C.ar    
  16 N16            8.1823     6.5332    -0.3992 N.am    
  17 C17            9.3126     5.9217    -0.8054 C.2     
  18 O18            9.2785     4.7637    -1.1738 O.2     
  19 Cl19           5.7186     8.1964    -0.4112 Cl      
  20 C20           10.5937     6.6592    -0.8032 C.ar    
  21 C21           11.7659     6.0287    -1.2234 C.ar    
  22 C22           12.9594     6.7230    -1.2195 C.ar    
  23 C23           12.9949     8.0420    -0.7999 C.ar    
  24 C24           11.8356     8.6727    -0.3815 C.ar    
  25 C25           10.6350     7.9906    -0.3864 C.ar    
  26 Cl26          11.8903    10.3265     0.1433 Cl      
  27 Cl27          14.4185     5.9404    -1.7412 Cl      
  28 H28            0.0646     0.3903     0.6997 H       
  29 H29           -1.9975     1.0292    -0.4869 H       
  30 H30           -2.0507     3.1432    -1.7898 H       
  31 H31           -0.0045     4.5529    -1.8581 H       
  32 H32            3.4139     2.8367     0.5828 H       
  33 H33            3.6452     6.2597    -0.1751 H       
  34 H34            7.9815     3.9051    -0.1964 H       
  35 H35            5.8902     2.6241    -0.0021 H       
  36 H36            8.1936     7.4783    -0.1813 H       
  37 H37           11.7395     4.9998    -1.5506 H       
  38 H38           13.9308     8.5809    -0.7986 H       
  39 H39            9.7305     8.4850    -0.0640 H       
@<TRIPOS>BOND
   1    1    2 ar
   2    1    6 ar
   3    1   28 1
   4    2    3 ar
   5    2   29 1
   6    3    4 ar
   7    3   30 1
   8    4    5 ar
   9    4   31 1
  10    5    6 ar
  11    5    7 1
  12    7    8 am
  13    7    9 2
  14    8   10 1
  15    8   32 1
  16   10   11 ar
  17   10   15 ar
  18   11   12 ar
  19   11   33 1
  20   12   13 ar
  21   12   19 1
  22   13   14 ar
  23   13   16 1
  24   14   15 ar
  25   14   34 1
  26   15   35 1
  27   16   17 am
  28   16   36 1
  29   17   18 2
  30   17   20 1
  31   20   21 ar
  32   20   25 ar
  33   21   22 ar
  34   21   37 1
  35   22   23 ar
  36   22   27 1
  37   23   24 ar
  38   23   38 1
  39   24   25 ar
  40   24   26 1
  41   25   39 1

#	End of record

