#	Name: ASD06610099
#	Creating user name:	WinNT
#	Creation time:	15. 06. 2019 21:07

#	Modifying user name:	WinNT
#	Modification time:	15. 06. 2019 21:07

#	Program:	/corina/corina34_cracker 3.40 0067  02.08.2006

@<TRIPOS>MOLECULE
ASD06610099
 237  238    0    0    0
SMALL
NO_CHARGES


@<TRIPOS>ATOM
   1 C1             0.0607     1.6068    -0.3509 C.2     
   2 O2             0.2074     0.4063    -0.2596 O.2     
   3 N3             2.4737     1.7884    -0.1285 N.3     
   4 C4             1.2588     2.4994    -0.5485 C.3     
   5 C5             1.3745     2.8779    -2.0264 C.3     
   6 C6             2.5144     3.8823    -2.2078 C.3     
   7 C7             2.6284     4.2551    -3.6635 C.2     
   8 O8             1.8728     3.7660    -4.4755 O.2     
   9 N9             3.5705     5.1324    -4.0626 N.am    
  10 C10           -3.5663     1.9550    -0.6445 C.2     
  11 O11           -3.5822     3.1603    -0.7777 O.2     
  12 N12           -1.1742     2.1420    -0.2812 N.am    
  13 C13           -2.3395     1.2737    -0.0952 C.3     
  14 C14           -2.5353     0.9956     1.3965 C.3     
  15 C15           -1.2947     0.2927     1.9514 C.3     
  16 O16           -2.7334     2.2297     2.0891 O.3     
  17 C17           -7.0553     0.9972    -1.1668 C.2     
  18 O18           -6.8901    -0.0927    -0.6613 O.2     
  19 N19           -4.6459     1.2247    -0.9877 N.am    
  20 C20           -5.8725     1.8935    -1.4289 C.3     
  21 C21           -5.7803     2.1915    -2.9267 C.3     
  22 C22           -5.6082     0.8812    -3.6978 C.3     
  23 C23           -5.6411     1.1658    -5.2007 C.3     
  24 C24           -4.5794     3.1014    -3.1928 C.3     
  25 C25          -10.5637     0.8879    -2.1879 C.2     
  26 O26          -10.4139     1.7789    -2.9970 O.2     
  27 N27           -8.2968     1.4070    -1.4942 N.am    
  28 C28           -9.4467     0.5357    -1.2395 C.3     
  29 C29           -9.9223     0.7273     0.2021 C.3     
  30 C30          -13.9977    -0.3411    -2.7970 C.2     
  31 O31          -13.9394    -1.1829    -1.9259 O.2     
  32 N32          -11.7290     0.2127    -2.1370 N.am    
  33 C33          -12.8148     0.5551    -3.0590 C.3     
  34 C34          -17.1069    -1.1839    -4.5249 C.2     
  35 O35          -16.7753    -0.5898    -5.5289 O.2     
  36 N36          -15.1202    -0.2072    -3.5307 N.am    
  37 C37          -16.2701    -1.0784    -3.2760 C.3     
  38 C38          -17.1150    -0.4900    -2.1442 C.3     
  39 C39          -16.3176    -0.4982    -0.8655 C.2     
  40 C40          -16.0691     0.5678    -0.0810 C.2     
  41 N41          -15.3154     0.1191     0.9698 N.pl3   
  42 C42          -15.1295    -1.2065     0.7908 C.2     
  43 N43          -15.7359    -1.5696    -0.3063 N.2     
  44 C44          -20.4568    -2.3808    -5.3664 C.2     
  45 O45          -20.7595    -2.5232    -4.2007 O.2     
  46 N46          -18.2236    -1.9384    -4.5261 N.am    
  47 C47          -19.0370    -2.0410    -5.7402 C.3     
  48 C48          -18.4704    -3.1392    -6.6424 C.3     
  49 C49          -17.0962    -2.7412    -7.1157 C.ar    
  50 C50          -15.9819    -3.0938    -6.3775 C.ar    
  51 C51          -14.7213    -2.7286    -6.8116 C.ar    
  52 C52          -14.5749    -2.0113    -7.9841 C.ar    
  53 C53          -15.6891    -1.6595    -8.7228 C.ar    
  54 C54          -16.9494    -2.0284    -8.2910 C.ar    
  55 C55          -23.4432    -3.5478    -7.1222 C.2     
  56 O56          -22.8300    -3.7452    -8.1498 O.2     
  57 N57          -21.3903    -2.5263    -6.3276 N.am    
  58 C58          -22.7706    -2.8566    -5.9643 C.3     
  59 C59          -23.5302    -1.5723    -5.6260 C.3     
  60 C60          -22.9233    -0.9356    -4.3741 C.3     
  61 C61          -23.6829     0.3487    -4.0358 C.3     
  62 N62          -23.1019     0.9584    -2.8371 N.pl3   
  63 C63          -23.6231     2.1293    -2.3398 C.2     
  64 N64          -24.6343     2.6971    -2.9349 N.2     
  65 N65          -23.0779     2.7015    -1.2149 N.pl3   
  66 C66          -26.8706    -4.4167    -8.0501 C.2     
  67 O67          -27.3405    -3.7746    -7.1347 O.2     
  68 N68          -24.7262    -3.9468    -7.0159 N.am    
  69 C69          -25.3800    -4.6187    -8.1415 C.3     
  70 C70          -25.0644    -6.1151    -8.0953 C.3     
  71 C71          -23.5649    -6.3270    -8.3131 C.3     
  72 C72          -23.2493    -7.8234    -8.2669 C.3     
  73 C73          -21.7498    -8.0353    -8.4847 C.3     
  74 N74          -21.4467    -9.4720    -8.4403 N.3     
  75 C75          -29.8346    -5.8745    -9.6161 C.2     
  76 O76          -29.1895    -6.7515   -10.1506 O.2     
  77 N77          -27.6815    -4.9495    -8.9855 N.am    
  78 C78          -29.1306    -4.7531    -8.8966 C.3     
  79 C79          -29.5049    -3.4179    -9.5431 C.3     
  80 C80          -28.8908    -2.2712    -8.7376 C.3     
  81 C81          -29.2595    -0.9561    -9.3744 C.2     
  82 O82          -29.9432    -0.9378   -10.3705 O.2     
  83 O83          -28.8283     0.1950    -8.8352 O.3     
  84 C84          -31.9625    -6.6655   -11.8330 C.2     
  85 O85          -31.5066    -5.6279   -12.2518 O.2     
  86 N86          -31.1812    -5.9029    -9.6657 N.am    
  87 C87          -31.8656    -6.9931   -10.3652 C.3     
  88 C88          -33.2716    -7.1665    -9.7874 C.3     
  89 C89          -33.1716    -7.6206    -8.3298 C.3     
  90 C90          -34.5777    -7.7939    -7.7520 C.3     
  91 N91          -34.4819    -8.2287    -6.3563 N.pl3   
  92 C92          -35.6251    -8.4509    -5.6255 C.2     
  93 N93          -35.5399    -8.8378    -4.3838 N.2     
  94 N94          -36.8581    -8.2650    -6.2046 N.pl3   
  95 O95          -32.5552    -7.5265   -12.6750 O.3     
  96 C96            3.6725     5.4659    -5.3645 C.2     
  97 O97            2.9168     4.9768    -6.1765 O.2     
  98 C98           11.5148    14.8322   -19.5757 C.3     
  99 C99           10.4453    13.8363   -19.1226 C.3     
 100 C100          10.5449    13.6343   -17.6093 C.3     
 101 C101           9.4755    12.6384   -17.1562 C.3     
 102 C102           9.5751    12.4364   -15.6428 C.3     
 103 C103           8.5056    11.4405   -15.1898 C.3     
 104 C104           8.6052    11.2385   -13.6764 C.3     
 105 C105           7.5358    10.2426   -13.2233 C.3     
 106 C106           7.6354    10.0406   -11.7100 C.3     
 107 C107           6.5659     9.0447   -11.2569 C.3     
 108 C108           6.6656     8.8427    -9.7436 C.3     
 109 C109           5.5961     7.8468    -9.2905 C.3     
 110 C110           5.6957     7.6448    -7.7772 C.3     
 111 C111           4.6262     6.6489    -7.3241 C.3     
 112 C112           4.7259     6.4469    -5.8107 C.3     
 113 H113           2.6050     0.9464    -0.6688 H       
 114 H114           3.2831     2.3877    -0.1905 H       
 115 H115           1.1413     3.4028     0.0499 H       
 116 H116           1.5806     1.9842    -2.6153 H       
 117 H117           0.4389     3.3259    -2.3611 H       
 118 H118           2.3083     4.7760    -1.6189 H       
 119 H119           3.4500     3.4343    -1.8731 H       
 120 H120           4.1751     5.5238    -3.4129 H       
 121 H121          -1.2915     3.1021    -0.3542 H       
 122 H122          -2.1795     0.3331    -0.6223 H       
 123 H123          -3.4075     0.3568     1.5355 H       
 124 H124          -0.4431     0.9718     1.9094 H       
 125 H125          -1.4752    -0.0002     2.9857 H       
 126 H126          -1.0821    -0.5941     1.3544 H       
 127 H127          -3.5043     2.7301     1.7886 H       
 128 H128          -4.6108     0.2564    -0.9425 H       
 129 H129          -5.9951     2.8269    -0.8796 H       
 130 H130          -6.6929     2.6890    -3.2550 H       
 131 H131          -4.6526     0.4277    -3.4347 H       
 132 H132          -6.4177     0.1986    -3.4394 H       
 133 H133          -5.5184     0.2324    -5.7500 H       
 134 H134          -6.5967     1.6193    -5.4638 H       
 135 H135          -4.8315     1.8485    -5.4590 H       
 136 H136          -3.6668     2.6038    -2.8645 H       
 137 H137          -4.5138     3.3137    -4.2599 H       
 138 H138          -4.7021     4.0348    -2.6435 H       
 139 H139          -8.4290     2.2787    -1.8985 H       
 140 H140          -9.1557    -0.5037    -1.3909 H       
 141 H141         -10.7779     0.0791     0.3916 H       
 142 H142          -9.1144     0.4726     0.8880 H       
 143 H143         -10.2134     1.7668     0.3535 H       
 144 H144         -11.8488    -0.4999    -1.4900 H       
 145 H145         -12.4760     0.4186    -4.0860 H       
 146 H146         -13.1059     1.5945    -2.9076 H       
 147 H147         -15.1668     0.4661    -4.2274 H       
 148 H148         -15.9186    -2.0696    -2.9893 H       
 149 H149         -17.3925     0.5344    -2.3928 H       
 150 H150         -18.0162    -1.0891    -2.0143 H       
 151 H151         -16.4004     1.5820    -0.2489 H       
 152 H152         -14.9779     0.6534     1.7057 H       
 153 H153         -14.5744    -1.8588     1.4486 H       
 154 H154         -18.4888    -2.4136    -3.7231 H       
 155 H155         -19.0189    -1.0892    -6.2712 H       
 156 H156         -18.4058    -4.0721    -6.0825 H       
 157 H157         -19.1254    -3.2764    -7.5028 H       
 158 H158         -16.0963    -3.6542    -5.4614 H       
 159 H159         -13.8508    -3.0035    -6.2344 H       
 160 H160         -13.5901    -1.7254    -8.3229 H       
 161 H161         -15.5748    -1.0988    -9.6387 H       
 162 H162         -17.8197    -1.7567    -8.8700 H       
 163 H163         -21.1483    -2.4124    -7.2600 H       
 164 H164         -22.7699    -3.5174    -5.0974 H       
 165 H165         -23.4554    -0.8754    -6.4607 H       
 166 H166         -24.5784    -1.8079    -5.4421 H       
 167 H167         -22.9981    -1.6325    -3.5393 H       
 168 H168         -21.8751    -0.7000    -4.5579 H       
 169 H169         -23.6081     1.0457    -4.8705 H       
 170 H170         -24.7312     0.1132    -3.8519 H       
 171 H171         -22.3494     0.5359    -2.3942 H       
 172 H172         -25.0021     3.5232    -2.5841 H       
 173 H173         -22.3254     2.2790    -0.7720 H       
 174 H174         -23.4456     3.5276    -0.8640 H       
 175 H175         -25.2166    -3.7890    -6.1940 H       
 176 H176         -25.0132    -4.1988    -9.0781 H       
 177 H177         -25.3508    -6.5170    -7.1235 H       
 178 H178         -25.6215    -6.6283    -8.8792 H       
 179 H179         -23.2785    -5.9251    -9.2850 H       
 180 H180         -23.0078    -5.8138    -7.5293 H       
 181 H181         -23.5357    -8.2253    -7.2950 H       
 182 H182         -23.8063    -8.3366    -9.0508 H       
 183 H183         -21.4634    -7.6334    -9.4566 H       
 184 H184         -21.1927    -7.5221    -7.7008 H       
 185 H185         -20.4616    -9.6383    -8.5817 H       
 186 H186         -21.7619    -9.8815    -7.5736 H       
 187 H187         -27.3057    -5.4630    -9.7176 H       
 188 H188         -29.4328    -4.7470    -7.8493 H       
 189 H189         -29.1242    -3.3893   -10.5641 H       
 190 H190         -30.5897    -3.3122    -9.5567 H       
 191 H191         -29.2714    -2.2998    -7.7166 H       
 192 H192         -27.8060    -2.3769    -8.7240 H       
 193 H193         -29.0904     1.0131    -9.2791 H       
 194 H194         -31.6971    -5.2015    -9.2382 H       
 195 H195         -31.3030    -7.9177   -10.2356 H       
 196 H196         -33.8042    -6.2167    -9.8363 H       
 197 H197         -33.8120    -7.9162   -10.3653 H       
 198 H198         -32.6391    -8.5704    -8.2808 H       
 199 H199         -32.6312    -6.8708    -7.7519 H       
 200 H200         -35.1103    -6.8441    -7.8009 H       
 201 H201         -35.1181    -8.5437    -8.3299 H       
 202 H202         -33.6120    -8.3599    -5.9478 H       
 203 H203         -36.3464    -8.9945    -3.8682 H       
 204 H204         -36.9215    -7.9771    -7.1287 H       
 205 H205         -37.6646    -8.4218    -5.6890 H       
 206 H206         -32.5934    -7.2728   -13.6074 H       
 207 H207          12.5021    14.4442   -19.3251 H       
 208 H208          11.4438    14.9761   -20.6538 H       
 209 H209          11.3604    15.7859   -19.0709 H       
 210 H210           9.4580    14.2244   -19.3731 H       
 211 H211          10.5997    12.8827   -19.6274 H       
 212 H212          11.5322    13.2463   -17.3587 H       
 213 H213          10.3905    14.5880   -17.1045 H       
 214 H214           8.4882    13.0265   -17.4067 H       
 215 H215           9.6299    11.6848   -17.6610 H       
 216 H216          10.5624    12.0484   -15.3923 H       
 217 H217           9.4207    13.3901   -15.1381 H       
 218 H218           7.5183    11.8285   -15.4403 H       
 219 H219           8.6600    10.4869   -15.6946 H       
 220 H220           9.5925    10.8505   -13.4259 H       
 221 H221           8.4508    12.1921   -13.1716 H       
 222 H222           6.5485    10.6306   -13.4739 H       
 223 H223           7.6902     9.2889   -13.7281 H       
 224 H224           8.6227     9.6525   -11.4595 H       
 225 H225           7.4810    10.9942   -11.2052 H       
 226 H226           5.5786     9.4327   -11.5075 H       
 227 H227           6.7203     8.0910   -11.7617 H       
 228 H228           7.6529     8.4546    -9.4930 H       
 229 H229           6.5111     9.7963    -9.2388 H       
 230 H230           4.6088     8.2348    -9.5410 H       
 231 H231           5.7505     6.8931    -9.7953 H       
 232 H232           6.6830     7.2567    -7.5266 H       
 233 H233           5.5413     8.5984    -7.2724 H       
 234 H234           3.6390     7.0369    -7.5746 H       
 235 H235           4.7807     5.6952    -7.8289 H       
 236 H236           4.5715     7.4005    -5.3060 H       
 237 H237           5.7132     6.0588    -5.5602 H       
@<TRIPOS>BOND
   1    1    2 2
   2    1    4 1
   3    1   12 am
   4    3    4 1
   5    3  113 1
   6    3  114 1
   7    4    5 1
   8    4  115 1
   9    5    6 1
  10    5  116 1
  11    5  117 1
  12    6    7 1
  13    6  118 1
  14    6  119 1
  15    7    8 2
  16    7    9 am
  17    9   96 am
  18    9  120 1
  19   10   11 2
  20   10   13 1
  21   10   19 am
  22   12   13 1
  23   12  121 1
  24   13   14 1
  25   13  122 1
  26   14   15 1
  27   14   16 1
  28   14  123 1
  29   15  124 1
  30   15  125 1
  31   15  126 1
  32   16  127 1
  33   17   18 2
  34   17   20 1
  35   17   27 am
  36   19   20 1
  37   19  128 1
  38   20   21 1
  39   20  129 1
  40   21   22 1
  41   21   24 1
  42   21  130 1
  43   22   23 1
  44   22  131 1
  45   22  132 1
  46   23  133 1
  47   23  134 1
  48   23  135 1
  49   24  136 1
  50   24  137 1
  51   24  138 1
  52   25   26 2
  53   25   28 1
  54   25   32 am
  55   27   28 1
  56   27  139 1
  57   28   29 1
  58   28  140 1
  59   29  141 1
  60   29  142 1
  61   29  143 1
  62   30   31 2
  63   30   33 1
  64   30   36 am
  65   32   33 1
  66   32  144 1
  67   33  145 1
  68   33  146 1
  69   34   35 2
  70   34   37 1
  71   34   46 am
  72   36   37 1
  73   36  147 1
  74   37   38 1
  75   37  148 1
  76   38   39 1
  77   38  149 1
  78   38  150 1
  79   39   40 2
  80   39   43 1
  81   40   41 1
  82   40  151 1
  83   41   42 1
  84   41  152 1
  85   42   43 2
  86   42  153 1
  87   44   45 2
  88   44   47 1
  89   44   57 am
  90   46   47 1
  91   46  154 1
  92   47   48 1
  93   47  155 1
  94   48   49 1
  95   48  156 1
  96   48  157 1
  97   49   50 ar
  98   49   54 ar
  99   50   51 ar
 100   50  158 1
 101   51   52 ar
 102   51  159 1
 103   52   53 ar
 104   52  160 1
 105   53   54 ar
 106   53  161 1
 107   54  162 1
 108   55   56 2
 109   55   58 1
 110   55   68 am
 111   57   58 1
 112   57  163 1
 113   58   59 1
 114   58  164 1
 115   59   60 1
 116   59  165 1
 117   59  166 1
 118   60   61 1
 119   60  167 1
 120   60  168 1
 121   61   62 1
 122   61  169 1
 123   61  170 1
 124   62   63 1
 125   62  171 1
 126   63   64 2
 127   63   65 1
 128   64  172 1
 129   65  173 1
 130   65  174 1
 131   66   67 2
 132   66   69 1
 133   66   77 am
 134   68   69 1
 135   68  175 1
 136   69   70 1
 137   69  176 1
 138   70   71 1
 139   70  177 1
 140   70  178 1
 141   71   72 1
 142   71  179 1
 143   71  180 1
 144   72   73 1
 145   72  181 1
 146   72  182 1
 147   73   74 1
 148   73  183 1
 149   73  184 1
 150   74  185 1
 151   74  186 1
 152   75   76 2
 153   75   78 1
 154   75   86 am
 155   77   78 1
 156   77  187 1
 157   78   79 1
 158   78  188 1
 159   79   80 1
 160   79  189 1
 161   79  190 1
 162   80   81 1
 163   80  191 1
 164   80  192 1
 165   81   82 2
 166   81   83 1
 167   83  193 1
 168   84   85 2
 169   84   87 1
 170   84   95 1
 171   86   87 1
 172   86  194 1
 173   87   88 1
 174   87  195 1
 175   88   89 1
 176   88  196 1
 177   88  197 1
 178   89   90 1
 179   89  198 1
 180   89  199 1
 181   90   91 1
 182   90  200 1
 183   90  201 1
 184   91   92 1
 185   91  202 1
 186   92   93 2
 187   92   94 1
 188   93  203 1
 189   94  204 1
 190   94  205 1
 191   95  206 1
 192   96   97 2
 193   96  112 1
 194   98   99 1
 195   98  207 1
 196   98  208 1
 197   98  209 1
 198   99  100 1
 199   99  210 1
 200   99  211 1
 201  100  101 1
 202  100  212 1
 203  100  213 1
 204  101  102 1
 205  101  214 1
 206  101  215 1
 207  102  103 1
 208  102  216 1
 209  102  217 1
 210  103  104 1
 211  103  218 1
 212  103  219 1
 213  104  105 1
 214  104  220 1
 215  104  221 1
 216  105  106 1
 217  105  222 1
 218  105  223 1
 219  106  107 1
 220  106  224 1
 221  106  225 1
 222  107  108 1
 223  107  226 1
 224  107  227 1
 225  108  109 1
 226  108  228 1
 227  108  229 1
 228  109  110 1
 229  109  230 1
 230  109  231 1
 231  110  111 1
 232  110  232 1
 233  110  233 1
 234  111  112 1
 235  111  234 1
 236  111  235 1
 237  112  236 1
 238  112  237 1

#	End of record

