#	Name: ASD01230523
#	Creating user name:	WinNT
#	Creation time:	15. 06. 2019 19:14

#	Modifying user name:	WinNT
#	Modification time:	15. 06. 2019 19:14

#	Program:	/corina/corina34_cracker 3.40 0067  02.08.2006

@<TRIPOS>MOLECULE
ASD01230523
  44   47    0    0    0
SMALL
NO_CHARGES


@<TRIPOS>ATOM
   1 S1            -0.0204     1.6504     0.0111 S.o2    
   2 N2             0.0021    -0.0041     0.0020 N.am    
   3 C3             1.0226    -0.6872    -0.4556 C.2     
   4 N4             2.1689    -0.1518    -0.9709 N.pl3   
   5 C5             2.3936     1.2854    -1.1469 C.3     
   6 C6             1.7501     2.0749    -0.0035 C.3     
   7 C7             0.8947    -2.1594    -0.3949 C.2     
   8 C8             1.9463    -2.9426    -0.8231 C.2     
   9 C9             3.1043    -2.3194    -1.3057 C.2     
  10 C10            3.1907    -0.9788    -1.3644 C.2     
  11 C11           -0.3438    -2.7833     0.1184 C.ar    
  12 C12           -0.3105    -3.5361     1.2950 C.ar    
  13 C13           -1.4539    -4.1129     1.7700 C.ar    
  14 C14           -2.6590    -3.9496     1.0778 C.ar    
  15 C15           -2.6912    -3.1955    -0.1004 C.ar    
  16 C16           -1.5478    -2.6149    -0.5706 C.ar    
  17 C17           -3.8918    -4.5711     1.5885 C.2     
  18 C18           -5.0488    -4.4140     0.9234 C.2     
  19 C19           -6.2828    -5.0361     1.4345 C.ar    
  20 C20           -7.4880    -4.8749     0.7455 C.ar    
  21 C21           -8.6389    -5.4601     1.2301 C.ar    
  22 C22           -8.6026    -6.2051     2.3958 C.ar    
  23 C23           -7.4129    -6.3691     3.0835 C.ar    
  24 C24           -6.2527    -5.7950     2.6078 C.ar    
  25 O25           -0.6346     2.0064    -1.2198 O.2     
  26 O26           -0.6110     1.9931     1.2573 O.2     
  27 H27            3.4656     1.4825    -1.1611 H       
  28 H28            1.9576     1.6041    -2.0937 H       
  29 H29            1.8743     3.1443    -0.1745 H       
  30 H30            2.2074     1.7939     0.9452 H       
  31 H31            1.8778    -4.0199    -0.7872 H       
  32 H32            3.9378    -2.9227    -1.6338 H       
  33 H33            4.1018    -0.5346    -1.7373 H       
  34 H34            0.6198    -3.6623     1.8290 H       
  35 H35           -1.4279    -4.6950     2.6793 H       
  36 H36           -3.6207    -3.0692    -0.6356 H       
  37 H37           -1.5733    -2.0291    -1.4776 H       
  38 H38           -3.8663    -5.1533     2.4978 H       
  39 H39           -5.0742    -3.8317     0.0141 H       
  40 H40           -7.5180    -4.2932    -0.1640 H       
  41 H41           -9.5710    -5.3365     0.6987 H       
  42 H42           -9.5072    -6.6604     2.7709 H       
  43 H43           -7.3922    -6.9515     3.9927 H       
  44 H44           -5.3240    -5.9279     3.1429 H       
@<TRIPOS>BOND
   1    1    2 am
   2    1    6 1
   3    1   25 2
   4    1   26 2
   5    2    3 2
   6    3    4 1
   7    3    7 1
   8    4    5 1
   9    4   10 1
  10    5    6 1
  11    5   27 1
  12    5   28 1
  13    6   29 1
  14    6   30 1
  15    7    8 2
  16    7   11 1
  17    8    9 1
  18    8   31 1
  19    9   10 2
  20    9   32 1
  21   10   33 1
  22   11   12 ar
  23   11   16 ar
  24   12   13 ar
  25   12   34 1
  26   13   14 ar
  27   13   35 1
  28   14   15 ar
  29   14   17 1
  30   15   16 ar
  31   15   36 1
  32   16   37 1
  33   17   18 2
  34   17   38 1
  35   18   19 1
  36   18   39 1
  37   19   20 ar
  38   19   24 ar
  39   20   21 ar
  40   20   40 1
  41   21   22 ar
  42   21   41 1
  43   22   23 ar
  44   22   42 1
  45   23   24 ar
  46   23   43 1
  47   24   44 1

#	End of record

