#	Name: ASD01209061
#	Creating user name:	WinNT
#	Creation time:	15. 06. 2019 19:10

#	Modifying user name:	WinNT
#	Modification time:	15. 06. 2019 19:10

#	Program:	/corina/corina34_cracker 3.40 0067  02.08.2006

@<TRIPOS>MOLECULE
ASD01209061
  52   54    0    0    0
SMALL
NO_CHARGES


@<TRIPOS>ATOM
   1 C1             0.2930     2.1297     1.6219 C.ar    
   2 C2            -0.2556     0.9922     1.0597 C.ar    
   3 C3             0.4812     0.2393     0.1645 C.ar    
   4 C4             1.7663     0.6242    -0.1688 C.ar    
   5 C5             2.3146     1.7622     0.3927 C.ar    
   6 C6             1.5784     2.5143     1.2889 C.ar    
   7 S7            -1.8937     0.5016     1.4846 S.o2    
   8 O8            -1.9046    -0.9036     1.2734 O.2     
   9 O9            -2.0988     1.0494     2.7796 O.2     
  10 C10            3.7158     2.1815     0.0296 C.3     
  11 C11            2.6467     4.4200    -0.8010 C.3     
  12 C12            2.6142     5.5397     0.2412 C.3     
  13 C13            1.3612     6.3930     0.0340 C.3     
  14 C14            1.3857     7.0027    -1.3690 C.3     
  15 C15            1.4182     5.8830    -2.4112 C.3     
  16 C16            2.6711     5.0297    -2.2040 C.3     
  17 C17            4.0511     2.3128    -1.4574 C.3     
  18 C18            3.8996     3.5666    -0.5938 C.3     
  19 F19            5.3428     1.9593    -1.8620 F       
  20 F20            3.0334     2.0343    -2.3760 F       
  21 C21            4.8021     1.6809     0.9463 C.2     
  22 O22            5.6133     2.4525     1.3990 O.2     
  23 C23            4.8762     0.2174     1.2980 C.3     
  24 C24            5.7851    -0.5018     0.2992 C.3     
  25 C25            5.4447     0.0603     2.7098 C.3     
  26 C26           -2.9467     1.3366     0.2661 C.3     
  27 H27           -0.2842     2.7203     2.3178 H       
  28 H28            0.0528    -0.6498    -0.2742 H       
  29 H29            2.3422     0.0357    -0.8677 H       
  30 H30            2.0066     3.4036     1.7273 H       
  31 H31            1.7598     3.7958    -0.6915 H       
  32 H32            2.5967     5.1053     1.2407 H       
  33 H33            3.5010     6.1638     0.1317 H       
  34 H34            0.4744     5.7689     0.1435 H       
  35 H35            1.3381     7.1907     0.7765 H       
  36 H36            0.4931     7.6107    -1.5166 H       
  37 H37            2.2726     7.6269    -1.4786 H       
  38 H38            0.5313     5.2589    -2.3017 H       
  39 H39            1.4357     6.3174    -3.4108 H       
  40 H40            3.5580     5.6538    -2.3135 H       
  41 H41            2.6943     4.2320    -2.9465 H       
  42 H42            4.8063     4.1161    -0.3409 H       
  43 H43            3.8772    -0.2169     1.2582 H       
  44 H44            5.8387    -1.5603     0.5536 H       
  45 H45            5.3801    -0.3899    -0.7065 H       
  46 H46            6.7841    -0.0676     0.3391 H       
  47 H47            4.7971     0.5726     3.4213 H       
  48 H48            5.4982    -0.9983     2.9641 H       
  49 H49            6.4436     0.4945     2.7496 H       
  50 H50           -2.6713     1.0099    -0.7367 H       
  51 H51           -3.9905     1.0864     0.4558 H       
  52 H52           -2.8110     2.4151     0.3470 H       
@<TRIPOS>BOND
   1    1    2 ar
   2    1    6 ar
   3    1   27 1
   4    2    3 ar
   5    2    7 1
   6    3    4 ar
   7    3   28 1
   8    4    5 ar
   9    4   29 1
  10    5    6 ar
  11    5   10 1
  12    6   30 1
  13    7    8 2
  14    7    9 2
  15    7   26 1
  16   10   17 1
  17   10   21 1
  18   10   18 1
  19   11   12 1
  20   11   16 1
  21   11   18 1
  22   11   31 1
  23   12   13 1
  24   12   32 1
  25   12   33 1
  26   13   14 1
  27   13   34 1
  28   13   35 1
  29   14   15 1
  30   14   36 1
  31   14   37 1
  32   15   16 1
  33   15   38 1
  34   15   39 1
  35   16   40 1
  36   16   41 1
  37   17   18 1
  38   17   19 1
  39   17   20 1
  40   18   42 1
  41   21   22 2
  42   21   23 1
  43   23   24 1
  44   23   25 1
  45   23   43 1
  46   24   44 1
  47   24   45 1
  48   24   46 1
  49   25   47 1
  50   25   48 1
  51   25   49 1
  52   26   50 1
  53   26   51 1
  54   26   52 1

#	End of record

