#	Name: ASD01811284
#	Creating user name:	WinNT
#	Creation time:	15. 06. 2019 19:26

#	Modifying user name:	WinNT
#	Modification time:	15. 06. 2019 19:26

#	Program:	/corina/corina34_cracker 3.40 0067  02.08.2006

@<TRIPOS>MOLECULE
ASD01811284
  62   66    0    0    0
SMALL
NO_CHARGES


@<TRIPOS>ATOM
   1 C1             6.1999     6.9010     2.0471 C.ar    
   2 C2             6.9334     6.6583     0.8840 C.ar    
   3 C3             7.5051     5.4198     0.6788 C.ar    
   4 C4             7.3530     4.4192     1.6222 C.ar    
   5 C5             6.6274     4.6528     2.7769 C.ar    
   6 C6             6.0504     5.8866     2.9950 C.ar    
   7 N7             7.9777     0.2401     1.3656 N.am    
   8 C8             8.6629     0.9226     2.4717 C.3     
   9 C9             7.9937     2.2811     2.7029 C.3     
  10 C10            7.9800     3.0685     1.3907 C.3     
  11 C11            7.1691     2.3028     0.3428 C.3     
  12 C12            7.8289     0.9445     0.0848 C.3     
  13 C13            7.4998    -1.0104     1.5211 C.2     
  14 C14            7.7749    -1.7574     2.7671 C.ar    
  15 C15            6.7678    -2.5202     3.3629 C.ar    
  16 C16            7.0232    -3.2186     4.5260 C.ar    
  17 C17            8.2743    -3.1681     5.1086 C.ar    
  18 C18            9.2902    -2.4094     4.5236 C.ar    
  19 C19            9.0408    -1.7066     3.3465 C.ar    
  20 O20            6.8425    -1.5241     0.6370 O.2     
  21 C21           10.6291    -2.3560     5.1490 C.2     
  22 N22           11.0017    -2.9688     6.2482 N.2     
  23 C23            8.5436    -3.9329     6.3788 C.3     
  24 C24            5.6086     8.1861     2.2696 C.1     
  25 N25            5.1395     9.2056     2.4461 N.1     
  26 N26           12.2329    -2.7026     6.5025 N.2     
  27 C27           12.7212    -1.9037     5.5810 C.2     
  28 N28           11.7209    -1.6596     4.6854 N.pl3   
  29 N29           14.0116    -1.4060     5.5261 N.pl3   
  30 C30           14.4088    -0.5199     4.4292 C.3     
  31 C31           15.9354    -0.5912     4.2014 C.3     
  32 C32           14.1542     0.9563     4.8065 C.3     
  33 O33           15.4159     1.4267     5.3286 O.3     
  34 C34           16.4224     0.8504     4.4681 C.3     
  35 F35            9.2917     3.2357     0.9338 F       
  36 H36            7.0526     7.4384     0.1467 H       
  37 H37            8.0724     5.2306    -0.2206 H       
  38 H38            6.5126     3.8673     3.5092 H       
  39 H39            5.4846     6.0678     3.8969 H       
  40 H40            8.5871     0.3192     3.3763 H       
  41 H41            9.7120     1.0709     2.2157 H       
  42 H42            6.9705     2.1289     3.0466 H       
  43 H43            8.5517     2.8381     3.4556 H       
  44 H44            6.1537     2.1503     0.7086 H       
  45 H45            7.1402     2.8751    -0.5844 H       
  46 H46            8.8100     1.0946    -0.3658 H       
  47 H47            7.2029     0.3556    -0.5856 H       
  48 H48            5.7870    -2.5635     2.9128 H       
  49 H49            6.2410    -3.8069     4.9826 H       
  50 H50            9.8243    -1.1217     2.8877 H       
  51 H51            8.8990    -4.9334     6.1321 H       
  52 H52            9.3020    -3.4117     6.9630 H       
  53 H53            7.6246    -4.0070     6.9602 H       
  54 H54           11.7683    -1.1057     3.8905 H       
  55 H55           14.6528    -1.6438     6.2140 H       
  56 H56           13.8738    -0.7806     3.5160 H       
  57 H57           16.3945    -1.2857     4.9050 H       
  58 H58           16.1551    -0.8848     3.1750 H       
  59 H59           13.8711     1.5301     3.9240 H       
  60 H60           13.3786     1.0246     5.5694 H       
  61 H61           17.3894     0.8373     4.9710 H       
  62 H62           16.4872     1.4079     3.5337 H       
@<TRIPOS>BOND
   1    1    2 ar
   2    1    6 ar
   3    1   24 1
   4    2    3 ar
   5    2   36 1
   6    3    4 ar
   7    3   37 1
   8    4    5 ar
   9    4   10 1
  10    5    6 ar
  11    5   38 1
  12    6   39 1
  13    7    8 1
  14    7   12 1
  15    7   13 am
  16    8    9 1
  17    8   40 1
  18    8   41 1
  19    9   10 1
  20    9   42 1
  21    9   43 1
  22   10   11 1
  23   10   35 1
  24   11   12 1
  25   11   44 1
  26   11   45 1
  27   12   46 1
  28   12   47 1
  29   13   14 1
  30   13   20 2
  31   14   15 ar
  32   14   19 ar
  33   15   16 ar
  34   15   48 1
  35   16   17 ar
  36   16   49 1
  37   17   18 ar
  38   17   23 1
  39   18   19 ar
  40   18   21 1
  41   19   50 1
  42   21   22 2
  43   21   28 1
  44   22   26 1
  45   23   51 1
  46   23   52 1
  47   23   53 1
  48   24   25 3
  49   26   27 2
  50   27   28 1
  51   27   29 1
  52   28   54 1
  53   29   30 1
  54   29   55 1
  55   30   31 1
  56   30   32 1
  57   30   56 1
  58   31   34 1
  59   31   57 1
  60   31   58 1
  61   32   33 1
  62   32   59 1
  63   32   60 1
  64   33   34 1
  65   34   61 1
  66   34   62 1

#	End of record

