#	Name: ASD00311148
#	Creating user name:	WinNT
#	Creation time:	15. 06. 2019 18:34

#	Modifying user name:	WinNT
#	Modification time:	15. 06. 2019 18:34

#	Program:	/corina/corina34_cracker 3.40 0067  02.08.2006

@<TRIPOS>MOLECULE
ASD00311148
  40   43    0    0    0
SMALL
NO_CHARGES


@<TRIPOS>ATOM
   1 C1            -0.0167     1.3775     0.0096 C.2     
   2 C2             0.0021    -0.0041     0.0020 C.2     
   3 C3             1.2586    -0.6767    -0.0136 C.2     
   4 C4             2.4315     0.0671    -0.0208 C.2     
   5 C5             2.3575     1.4749    -0.0126 C.2     
   6 N6             1.1650     2.0901     0.0022 N.am    
   7 C7            -1.3435    -0.5754     0.0123 C.2     
   8 C8            -2.3233     0.3267     0.0268 C.2     
   9 S9            -1.6791     1.9565     0.0358 S.3     
  10 O10            3.3824     2.1371    -0.0184 O.2     
  11 C11            3.7476    -0.6123    -0.0366 C.ar    
  12 C12            4.5933    -0.4750    -1.1371 C.ar    
  13 C13            5.8181    -1.1104    -1.1459 C.ar    
  14 C14            6.2077    -1.8825    -0.0660 C.ar    
  15 C15            5.3732    -2.0225     1.0285 C.ar    
  16 C16            4.1485    -1.3873     1.0515 C.ar    
  17 C17           -1.5961    -2.0354     0.0065 C.ar    
  18 C18           -2.2064    -2.6437     1.1021 C.ar    
  19 C19           -2.4400    -4.0085     1.0900 C.ar    
  20 C20           -2.0667    -4.7675    -0.0112 C.ar    
  21 C21           -1.4610    -4.1652    -1.0980 C.ar    
  22 C22           -1.2292    -2.8044    -1.0976 C.ar    
  23 C23           -2.3223    -6.2526    -0.0213 C.3     
  24 O24           -3.0344    -4.6054     2.1565 O.3     
  25 O25            1.3083    -2.0293    -0.0209 O.3     
  26 Cl26          -4.0154    -0.0609     0.0410 Cl      
  27 H27            1.1328     3.0595     0.0073 H       
  28 H28            4.2901     0.1272    -1.9808 H       
  29 H29            6.4737    -1.0052    -1.9976 H       
  30 H30            7.1672    -2.3782    -0.0777 H       
  31 H31            5.6829    -2.6265     1.8685 H       
  32 H32            3.4998    -1.4937     1.9084 H       
  33 H33           -2.4960    -2.0523     1.9582 H       
  34 H34           -1.1723    -4.7604    -1.9517 H       
  35 H35           -0.7598    -2.3362    -1.9501 H       
  36 H36           -3.3060    -6.4491    -0.4477 H       
  37 H37           -1.5601    -6.7484    -0.6225 H       
  38 H38           -2.2856    -6.6346     0.9989 H       
  39 H39           -3.9992    -4.6393     2.1010 H       
  40 H40            2.2056    -2.3898    -0.0315 H       
@<TRIPOS>BOND
   1    1    2 2
   2    1    6 1
   3    1    9 1
   4    2    3 1
   5    2    7 1
   6    3    4 2
   7    3   25 1
   8    4    5 1
   9    4   11 1
  10    5    6 am
  11    5   10 2
  12    6   27 1
  13    7    8 2
  14    7   17 1
  15    8    9 1
  16    8   26 1
  17   11   12 ar
  18   11   16 ar
  19   12   13 ar
  20   12   28 1
  21   13   14 ar
  22   13   29 1
  23   14   15 ar
  24   14   30 1
  25   15   16 ar
  26   15   31 1
  27   16   32 1
  28   17   18 ar
  29   17   22 ar
  30   18   19 ar
  31   18   33 1
  32   19   20 ar
  33   19   24 1
  34   20   21 ar
  35   20   23 1
  36   21   22 ar
  37   21   34 1
  38   22   35 1
  39   23   36 1
  40   23   37 1
  41   23   38 1
  42   24   39 1
  43   25   40 1

#	End of record

