#	Name: ASD01140589
#	Creating user name:	WinNT
#	Creation time:	15. 06. 2019 19:01

#	Modifying user name:	WinNT
#	Modification time:	15. 06. 2019 19:01

#	Program:	/corina/corina34_cracker 3.40 0067  02.08.2006

@<TRIPOS>MOLECULE
ASD01140589
  67   71    0    0    0
SMALL
NO_CHARGES


@<TRIPOS>ATOM
   1 F1            -5.5068     8.9378     1.0290 F       
   2 F2            -4.5011     2.3779     3.3866 F       
   3 F3            -6.4953     3.1662     2.5987 F       
   4 F4            -5.9352     3.4659     4.7932 F       
   5 F5            -7.5885    10.2852    -0.1350 F       
   6 O6            -2.3160     3.9193     2.4780 O.2     
   7 O7            -2.2361     1.5218     0.0208 O.2     
   8 O8             1.4997     0.3810    -4.1938 O.2     
   9 N9            -0.0184     1.4733    -0.0914 N.am    
  10 N10            2.8960    -0.2995    -2.5298 N.am    
  11 N11           -4.2580     4.6821     1.7646 N.am    
  12 N12           -1.1919     3.4792     0.1284 N.am    
  13 N13            3.4414    -0.7268    -4.6193 N.am    
  14 N14            5.5786    -1.8933    -4.1072 N.ar    
  15 C15            2.1539     0.1823    -1.3622 C.3     
  16 C16            1.9955     1.7019    -1.4502 C.3     
  17 C17            0.7723    -0.4752    -1.3294 C.3     
  18 C18           -4.6087     6.4335     0.1039 C.3     
  19 C19            1.2494     2.2062    -0.2109 C.3     
  20 C20            0.0123     0.0043    -0.0887 C.3     
  21 C21           -2.4624     4.2087     0.1350 C.3     
  22 C22           -3.5133     6.2246    -0.9257 C.3     
  23 C23           -2.2349     5.6422    -0.3507 C.3     
  24 C24           -5.1150     5.0933     0.6408 C.3     
  25 C25           -3.0117     4.2610     1.5452 C.2     
  26 C26           -1.1868     2.1359     0.0193 C.2     
  27 C27           -5.7541     7.1759    -0.5349 C.ar    
  28 C28            4.1093    -0.9804    -2.5016 C.ar    
  29 C29           -4.7755     4.7413     3.1339 C.3     
  30 C30            2.5191    -0.1652    -3.8158 C.2     
  31 C31            4.4566    -1.2499    -3.8286 C.ar    
  32 C32           -6.1480     8.4040    -0.0337 C.ar    
  33 C33           -6.4077     6.6326    -1.6254 C.ar    
  34 C34            4.9509    -1.3968    -1.4803 C.ar    
  35 C35           -5.4410     3.4093     3.4856 C.3     
  36 C36           -7.2019     9.0862    -0.6230 C.ar    
  37 C37           -7.4577     7.3126    -2.2130 C.ar    
  38 C38            6.1141    -2.0702    -1.8222 C.ar    
  39 C39           -7.8574     8.5372    -1.7110 C.ar    
  40 C40            6.3950    -2.3027    -3.1558 C.ar    
  41 H41            2.6995    -0.0740    -0.4541 H       
  42 H42            2.9797     2.1681    -1.4971 H       
  43 H43            1.4284     1.9574    -2.3453 H       
  44 H44            0.2167    -0.1993    -2.2256 H       
  45 H45            0.8858    -1.5586    -1.2903 H       
  46 H46           -4.2156     7.0254     0.9305 H       
  47 H47            1.0469     3.2721    -0.3149 H       
  48 H48            1.8570     2.0325     0.6772 H       
  49 H49            0.5191    -0.3489     0.8094 H       
  50 H50           -1.0064    -0.3825    -0.1120 H       
  51 H51           -3.1752     3.7086    -0.5206 H       
  52 H52           -3.8855     5.5517    -1.6982 H       
  53 H53           -3.2816     7.1846    -1.3870 H       
  54 H54           -1.9055     6.2569     0.4870 H       
  55 H55           -1.4628     5.6421    -1.1202 H       
  56 H56           -5.0690     4.3424    -0.1480 H       
  57 H57           -6.1432     5.2023     0.9857 H       
  58 H58           -0.3545     3.9630     0.2024 H       
  59 H59           -3.9541     4.9307     3.8249 H       
  60 H60           -5.5079     5.5449     3.2110 H       
  61 H61            3.4026    -0.7622    -5.5879 H       
  62 H62           -6.0971     5.6759    -2.0187 H       
  63 H63            4.7068    -1.2014    -0.4465 H       
  64 H64           -7.9668     6.8867    -3.0650 H       
  65 H65            6.7938    -2.4092    -1.0545 H       
  66 H66           -8.6785     9.0673    -2.1705 H       
  67 H67            7.3016    -2.8251    -3.4235 H       
@<TRIPOS>BOND
   1    1   32 1
   2    2   35 1
   3    3   35 1
   4    4   35 1
   5    5   36 1
   6    6   25 2
   7    7   26 2
   8    8   30 2
   9    9   19 1
  10    9   20 1
  11    9   26 am
  12   10   15 1
  13   10   28 1
  14   10   30 am
  15   11   24 1
  16   11   25 am
  17   11   29 1
  18   12   26 am
  19   12   58 1
  20   12   21 1
  21   13   30 am
  22   13   31 1
  23   13   61 1
  24   14   31 ar
  25   14   40 ar
  26   15   16 1
  27   15   17 1
  28   15   41 1
  29   16   19 1
  30   16   42 1
  31   16   43 1
  32   17   20 1
  33   17   44 1
  34   17   45 1
  35   18   22 1
  36   18   24 1
  37   18   27 1
  38   18   46 1
  39   19   47 1
  40   19   48 1
  41   20   49 1
  42   20   50 1
  43   21   23 1
  44   21   25 1
  45   21   51 1
  46   22   23 1
  47   22   52 1
  48   22   53 1
  49   23   54 1
  50   23   55 1
  51   24   56 1
  52   24   57 1
  53   27   32 ar
  54   27   33 ar
  55   28   31 ar
  56   28   34 ar
  57   29   35 1
  58   29   59 1
  59   29   60 1
  60   32   36 ar
  61   33   37 ar
  62   33   62 1
  63   34   38 ar
  64   34   63 1
  65   36   39 ar
  66   37   39 ar
  67   37   64 1
  68   38   40 ar
  69   38   65 1
  70   39   66 1
  71   40   67 1

#	End of record

