#	Name: ASD03240969
#	Creating user name:	WinNT
#	Creation time:	15. 06. 2019 20:35

#	Modifying user name:	WinNT
#	Modification time:	15. 06. 2019 20:35

#	Program:	/corina/corina34_cracker 3.40 0067  02.08.2006

@<TRIPOS>MOLECULE
ASD03240969
  64   69    0    0    0
SMALL
NO_CHARGES


@<TRIPOS>ATOM
   1 C1             0.1059     0.8804    -1.7663 C.3     
   2 C2             1.3863     0.1960    -2.2734 C.3     
   3 C3             2.0103     0.5276    -0.9075 C.3     
   4 C4             0.5794     0.5367    -0.3442 C.3     
   5 O5             0.0633     2.2838    -2.0320 O.3     
   6 C6            -1.1788     0.1574    -2.1760 C.3     
   7 C7             2.8706    -0.5783    -0.3524 C.ar    
   8 C8             3.9433    -0.2719     0.4657 C.ar    
   9 C9             4.7349    -1.2798     0.9767 C.ar    
  10 C10            4.4514    -2.6101     0.6672 C.ar    
  11 C11            3.3681    -2.9126    -0.1578 C.ar    
  12 C12            2.5808    -1.8960    -0.6584 C.ar    
  13 N13            6.8240    -6.7075     0.0233 N.pl3   
  14 C14            7.6055    -7.7217     0.5069 C.2     
  15 N15            8.0151    -7.7575     1.7873 N.2     
  16 C16            7.6906    -6.8253     2.6457 C.2     
  17 C17            6.8575    -5.7098     2.2017 C.ar    
  18 C18            6.4779    -4.6830     3.0726 C.ar    
  19 C19            5.6835    -3.6596     2.5661 C.ar    
  20 C20            5.2973    -3.6967     1.2119 C.ar    
  21 N21            5.6767    -4.6860     0.4171 N.ar    
  22 C22            6.4316    -5.6777     0.8568 C.ar    
  23 C23            7.8303    -8.5924    -0.5508 C.2     
  24 C24            7.1741    -8.0833    -1.6644 C.2     
  25 N25            6.5707    -6.9683    -1.3287 N.2     
  26 C26            7.1536    -8.7130    -3.0334 C.3     
  27 C27            8.3981    -8.2816    -3.8119 C.3     
  28 C28            7.1420   -10.2366    -2.8939 C.3     
  29 C29            5.2487    -2.5442     3.4404 C.ar    
  30 C30            3.9005    -2.3988     3.7731 C.ar    
  31 C31            3.5024    -1.3563     4.5887 C.ar    
  32 C32            4.4368    -0.4592     5.0737 C.ar    
  33 C33            5.7734    -0.5990     4.7463 C.ar    
  34 C34            6.1847    -1.6397     3.9381 C.ar    
  35 F35            2.9875    -3.2744     3.2989 F       
  36 N36            2.6682     1.8403    -0.8642 N.3     
  37 H37            1.2688    -0.8729    -2.4518 H       
  38 H38            1.8585     0.7159    -3.1069 H       
  39 H39            0.4003     1.3317     0.3797 H       
  40 H40            0.2413    -0.4390     0.0048 H       
  41 H41           -0.7397     2.7198    -1.7155 H       
  42 H42           -1.1700    -0.8554    -1.7732 H       
  43 H43           -2.0405     0.6971    -1.7832 H       
  44 H44           -1.2411     0.1154    -3.2634 H       
  45 H45            4.1618     0.7585     0.7046 H       
  46 H46            5.5726    -1.0393     1.6147 H       
  47 H47            3.1436    -3.9407    -0.4010 H       
  48 H48            1.7392    -2.1292    -1.2937 H       
  49 H49            8.0334    -6.8795     3.6684 H       
  50 H50            6.7912    -4.6851     4.1062 H       
  51 H51            8.4113    -9.5021    -0.5145 H       
  52 H52            6.2604    -8.3903    -3.5684 H       
  53 H53            9.2913    -8.6042    -3.2769 H       
  54 H54            8.3832    -8.7370    -4.8021 H       
  55 H55            8.4063    -7.1961    -3.9113 H       
  56 H56            7.1272   -10.6920    -3.8841 H       
  57 H57            8.0352   -10.5592    -2.3589 H       
  58 H58            6.2554   -10.5439    -2.3393 H       
  59 H59            2.4601    -1.2418     4.8475 H       
  60 H60            4.1214     0.3542     5.7104 H       
  61 H61            6.4979     0.1052     5.1280 H       
  62 H62            7.2295    -1.7499     3.6880 H       
  63 H63            3.0629     2.0171     0.0474 H       
  64 H64            3.3716     1.9162    -1.5836 H       
@<TRIPOS>BOND
   1    1    2 1
   2    1    4 1
   3    1    5 1
   4    1    6 1
   5    2    3 1
   6    2   37 1
   7    2   38 1
   8    3    4 1
   9    3    7 1
  10    3   36 1
  11    4   39 1
  12    4   40 1
  13    5   41 1
  14    6   42 1
  15    6   43 1
  16    6   44 1
  17    7    8 ar
  18    7   12 ar
  19    8    9 ar
  20    8   45 1
  21    9   10 ar
  22    9   46 1
  23   10   11 ar
  24   10   20 1
  25   11   12 ar
  26   11   47 1
  27   12   48 1
  28   13   14 1
  29   13   22 1
  30   13   25 1
  31   14   15 1
  32   14   23 2
  33   15   16 2
  34   16   17 1
  35   16   49 1
  36   17   18 ar
  37   17   22 ar
  38   18   19 ar
  39   18   50 1
  40   19   20 ar
  41   19   29 1
  42   20   21 ar
  43   21   22 ar
  44   23   24 1
  45   23   51 1
  46   24   25 2
  47   24   26 1
  48   26   27 1
  49   26   28 1
  50   26   52 1
  51   27   53 1
  52   27   54 1
  53   27   55 1
  54   28   56 1
  55   28   57 1
  56   28   58 1
  57   29   30 ar
  58   29   34 ar
  59   30   31 ar
  60   30   35 1
  61   31   32 ar
  62   31   59 1
  63   32   33 ar
  64   32   60 1
  65   33   34 ar
  66   33   61 1
  67   34   62 1
  68   36   63 1
  69   36   64 1

#	End of record

