#	Name: ASD01820045
#	Creating user name:	WinNT
#	Creation time:	15. 06. 2019 19:36

#	Modifying user name:	WinNT
#	Modification time:	15. 06. 2019 19:36

#	Program:	/corina/corina34_cracker 3.40 0067  02.08.2006

@<TRIPOS>MOLECULE
ASD01820045
  96   99    0    0    0
SMALL
NO_CHARGES


@<TRIPOS>ATOM
   1 N1             2.2316    -3.4744    -0.1327 N.am    
   2 C2             2.2246    -4.5377     0.8751 C.3     
   3 C3             1.7850    -3.9606     2.2222 C.3     
   4 C4             1.7777    -5.0710     3.2747 C.3     
   5 N5             1.9974    -4.4868     4.6045 N.4     
   6 C6             1.8032    -5.5193     5.6312 C.3     
   7 C7             2.0320    -4.9107     7.0162 C.3     
   8 C8             1.8298    -5.9861     8.0856 C.3     
   9 C9             2.0586    -5.3776     9.4705 C.3     
  10 C10            1.8563    -6.4530    10.5399 C.3     
  11 C11            2.0852    -5.8444    11.9249 C.3     
  12 C12            3.3674    -3.9635     4.6892 C.3     
  13 C13            1.0412    -3.3931     4.8229 C.3     
  14 N14            1.8910    -6.8770    12.9516 N.4     
  15 C15            2.1107    -6.2927    14.2814 C.3     
  16 C16            2.3485    -7.4118    15.2972 C.3     
  17 C17            2.1508    -6.8660    16.7128 C.3     
  18 N18            2.3785    -7.9376    17.6855 N.am    
  19 C19            0.5209    -7.4002    12.8669 C.3     
  20 C20            2.8472    -7.9706    12.7332 C.3     
  21 C21            3.5716    -8.2243    18.2368 C.2     
  22 C22            3.4007    -9.3627    19.1640 C.ar    
  23 C23            2.0349    -9.7059    19.1057 C.ar    
  24 C24            1.4209    -8.7608    18.1493 C.2     
  25 C25            4.2552   -10.0740    19.9911 C.ar    
  26 C26            3.7599   -11.1188    20.7555 C.ar    
  27 C27            2.4204   -11.4554    20.6983 C.ar    
  28 C28            1.5539   -10.7528    19.8756 C.ar    
  29 O29            0.2495    -8.7365    17.8297 O.2     
  30 O30            4.6147    -7.6448    18.0106 O.2     
  31 C31            3.2923    -2.6944    -0.4089 C.2     
  32 C32            2.9137    -1.7455    -1.4771 C.ar    
  33 C33            1.5705    -2.0347    -1.7916 C.ar    
  34 C34            1.1800    -3.1534    -0.9078 C.2     
  35 C35            3.5762    -0.7319    -2.1507 C.ar    
  36 C36            2.9124    -0.0092    -3.1297 C.ar    
  37 C37            1.5951    -0.2928    -3.4380 C.ar    
  38 C38            0.9197    -1.3038    -2.7726 C.ar    
  39 O39            4.3790    -2.7590     0.1294 O.2     
  40 O40            0.0898    -3.6879    -0.8804 O.2     
  41 C41            2.7594    -2.8606     2.6482 C.3     
  42 C42            0.3784    -3.3732     2.0908 C.3     
  43 C43            1.3556    -8.5484    15.0456 C.3     
  44 C44            3.7767    -7.9400    15.1490 C.3     
  45 H45            1.5305    -5.3214     0.5716 H       
  46 H46            3.2267    -4.9562     0.9687 H       
  47 H47            0.8151    -5.5822     3.2570 H       
  48 H48            2.5720    -5.7846     3.0557 H       
  49 H49            0.7866    -5.9075     5.5684 H       
  50 H50            2.5127    -6.3308     5.4692 H       
  51 H51            3.0486    -4.5225     7.0791 H       
  52 H52            1.3225    -4.0993     7.1782 H       
  53 H53            0.8132    -6.3744     8.0227 H       
  54 H54            2.5393    -6.7976     7.9235 H       
  55 H55            3.0752    -4.9894     9.5334 H       
  56 H56            1.3491    -4.5661     9.6326 H       
  57 H57            0.8398    -6.8412    10.4770 H       
  58 H58            2.5658    -7.2645    10.3778 H       
  59 H59            3.1018    -5.4562    11.9877 H       
  60 H60            1.3757    -5.0330    12.0869 H       
  61 H61            3.3913    -2.9437     4.3053 H       
  62 H62            3.6945    -3.9681     5.7290 H       
  63 H63            4.0332    -4.5907     4.0962 H       
  64 H64            0.1194    -3.6027     4.2802 H       
  65 H65            0.8245    -3.3072     5.8877 H       
  66 H66            1.4703    -2.4581     4.4628 H       
  67 H67            2.9818    -5.6382    14.2512 H       
  68 H68            1.2332    -5.7163    14.5745 H       
  69 H69            2.8581    -6.0563    16.8921 H       
  70 H70            1.1333    -6.4897    16.8184 H       
  71 H71            0.3918    -7.9294    11.9228 H       
  72 H72            0.3420    -8.0858    13.6951 H       
  73 H73           -0.1876    -6.5736    12.9199 H       
  74 H74            3.8638    -7.5832    12.8001 H       
  75 H75            2.7003    -8.7386    13.4926 H       
  76 H76            2.6868    -8.4015    11.7449 H       
  77 H77            5.3027    -9.8157    20.0395 H       
  78 H78            4.4252   -11.6740    21.4001 H       
  79 H79            2.0464   -12.2715    21.2987 H       
  80 H80            0.5083   -11.0202    19.8349 H       
  81 H81            4.6053    -0.5057    -1.9137 H       
  82 H82            3.4279     0.7813    -3.6549 H       
  83 H83            1.0887     0.2774    -4.2028 H       
  84 H84           -0.1095    -1.5210    -3.0176 H       
  85 H85            2.8409    -2.1196     1.8530 H       
  86 H86            2.3918    -2.3810     3.5554 H       
  87 H87            3.7395    -3.2975     2.8396 H       
  88 H88           -0.3320    -4.1739     1.8852 H       
  89 H89            0.1046    -2.8744     3.0205 H       
  90 H90            0.3605    -2.6527     1.2731 H       
  91 H91            1.4159    -8.8592    14.0026 H       
  92 H92            1.5986    -9.3926    15.6909 H       
  93 H93            0.3451    -8.2031    15.2640 H       
  94 H94            4.4818    -7.1156    15.2546 H       
  95 H95            3.9705    -8.6849    15.9209 H       
  96 H96            3.8953    -8.3960    14.1661 H       
@<TRIPOS>BOND
   1    1    2 1
   2    1   31 am
   3    1   34 am
   4    2    3 1
   5    2   45 1
   6    2   46 1
   7    3    4 1
   8    3   41 1
   9    3   42 1
  10    4    5 1
  11    4   47 1
  12    4   48 1
  13    5    6 1
  14    5   12 1
  15    5   13 1
  16    6    7 1
  17    6   49 1
  18    6   50 1
  19    7    8 1
  20    7   51 1
  21    7   52 1
  22    8    9 1
  23    8   53 1
  24    8   54 1
  25    9   10 1
  26    9   55 1
  27    9   56 1
  28   10   11 1
  29   10   57 1
  30   10   58 1
  31   11   14 1
  32   11   59 1
  33   11   60 1
  34   12   61 1
  35   12   62 1
  36   12   63 1
  37   13   64 1
  38   13   65 1
  39   13   66 1
  40   14   15 1
  41   14   19 1
  42   14   20 1
  43   15   16 1
  44   15   67 1
  45   15   68 1
  46   16   17 1
  47   16   43 1
  48   16   44 1
  49   17   18 1
  50   17   69 1
  51   17   70 1
  52   18   21 am
  53   18   24 am
  54   19   71 1
  55   19   72 1
  56   19   73 1
  57   20   74 1
  58   20   75 1
  59   20   76 1
  60   21   22 1
  61   21   30 2
  62   22   23 ar
  63   22   25 ar
  64   23   24 1
  65   23   28 ar
  66   24   29 2
  67   25   26 ar
  68   25   77 1
  69   26   27 ar
  70   26   78 1
  71   27   28 ar
  72   27   79 1
  73   28   80 1
  74   31   32 1
  75   31   39 2
  76   32   33 ar
  77   32   35 ar
  78   33   34 1
  79   33   38 ar
  80   34   40 2
  81   35   36 ar
  82   35   81 1
  83   36   37 ar
  84   36   82 1
  85   37   38 ar
  86   37   83 1
  87   38   84 1
  88   41   85 1
  89   41   86 1
  90   41   87 1
  91   42   88 1
  92   42   89 1
  93   42   90 1
  94   43   91 1
  95   43   92 1
  96   43   93 1
  97   44   94 1
  98   44   95 1
  99   44   96 1

#	End of record

