#	Name: ASD01911776
#	Creating user name:	WinNT
#	Creation time:	15. 06. 2019 19:58

#	Modifying user name:	WinNT
#	Modification time:	15. 06. 2019 19:58

#	Program:	/corina/corina34_cracker 3.40 0067  02.08.2006

@<TRIPOS>MOLECULE
ASD01911776
  27   28    0    0    0
SMALL
NO_CHARGES


@<TRIPOS>ATOM
   1 C1            -0.0187     1.5258     0.0104 C.3     
   2 C2             0.0021    -0.0041     0.0020 C.3     
   3 C3             0.7309    -0.5033     1.2229 C.2     
   4 C4             2.0261    -0.8367     1.2817 C.2     
   5 S5             0.0266    -0.7414     2.8209 S.3     
   6 C6             1.5891    -1.2889     3.4230 C.2     
   7 N7             2.4586    -1.2491     2.4492 N.2     
   8 C8             1.8631    -1.7053     4.7655 C.1     
   9 C9             2.0877    -2.0466     5.8661 C.1     
  10 C10            2.3616    -2.4630     7.2085 C.ar    
  11 C11            3.6477    -2.8780     7.5667 C.ar    
  12 C12            3.9039    -3.2771     8.8616 C.ar    
  13 C13            2.8918    -3.2675     9.8055 C.ar    
  14 C14            1.6161    -2.8584     9.4584 C.ar    
  15 C15            1.3458    -2.4510     8.1689 C.ar    
  16 O16           -1.3386    -0.4987     0.0122 O.3     
  17 H17            1.0039     1.9031     0.0027 H       
  18 H18           -0.5459     1.8868    -0.8726 H       
  19 H19           -0.5289     1.8773     0.9072 H       
  20 H20            0.5123    -0.3556    -0.8948 H       
  21 H21            2.6748    -0.7705     0.4207 H       
  22 H22            4.4384    -2.8864     6.8311 H       
  23 H23            4.8968    -3.5984     9.1397 H       
  24 H24            3.0985    -3.5812    10.8180 H       
  25 H25            0.8314    -2.8539    10.2003 H       
  26 H26            0.3499    -2.1316     7.8996 H       
  27 H27           -1.8531    -0.2245     0.7836 H       
@<TRIPOS>BOND
   1    1    2 1
   2    1   17 1
   3    1   18 1
   4    1   19 1
   5    2    3 1
   6    2   16 1
   7    2   20 1
   8    3    4 2
   9    3    5 1
  10    4    7 1
  11    4   21 1
  12    5    6 1
  13    6    7 2
  14    6    8 1
  15    8    9 3
  16    9   10 1
  17   10   11 ar
  18   10   15 ar
  19   11   12 ar
  20   11   22 1
  21   12   13 ar
  22   12   23 1
  23   13   14 ar
  24   13   24 1
  25   14   15 ar
  26   14   25 1
  27   15   26 1
  28   16   27 1

#	End of record

