#	Name: ASD01885150
#	Creating user name:	WinNT
#	Creation time:	15. 06. 2019 19:49

#	Modifying user name:	WinNT
#	Modification time:	15. 06. 2019 19:49

#	Program:	/corina/corina34_cracker 3.40 0067  02.08.2006

@<TRIPOS>MOLECULE
ASD01885150
  55   59    0    0    0
SMALL
NO_CHARGES


@<TRIPOS>ATOM
   1 C1             0.0259     1.2742     0.1987 C.2     
   2 C2             1.3568    -0.7087     0.2231 C.2     
   3 C3             2.4384     0.0473    -0.2604 C.2     
   4 C4             2.2954     1.3680    -0.4984 C.2     
   5 N5             1.1009     1.9867    -0.2735 N.pl3   
   6 C6             0.6649     3.2677    -0.4162 C.2     
   7 N7            -0.5901     3.2994    -0.0488 N.2     
   8 N8            -0.9793     2.1270     0.3117 N.2     
   9 C9             1.4794     4.4367    -0.9071 C.3     
  10 C10            1.5225    -2.1831     0.4870 C.3     
  11 C11            1.3520     4.5442    -2.4280 C.3     
  12 N12            1.7538    -2.8849    -0.7826 N.3     
  13 C13            0.1597    -0.1045     0.4518 C.2     
  14 C14           -1.0095    -0.9013     0.9706 C.3     
  15 C15            2.0142     5.7435    -3.1093 C.3     
  16 C16            2.6215     4.3472    -3.2589 C.3     
  17 F17           -0.8219    -1.1735     2.3300 F       
  18 F18           -2.1873    -0.1657     0.8004 F       
  19 F19           -1.1047    -2.1044     0.2629 F       
  20 C20            2.2788    -4.2362    -0.5490 C.3     
  21 C21            2.6437    -4.8817    -1.8877 C.3     
  22 C22            1.3973    -4.9446    -2.7750 C.3     
  23 C23            0.8424    -3.5299    -2.9630 C.3     
  24 C24            0.5298    -2.9236    -1.5931 C.3     
  25 O25            1.7443    -5.4945    -4.0475 O.3     
  26 C26            0.7508    -6.1011    -4.7491 C.ar    
  27 C27            1.0301    -6.7608    -5.9373 C.ar    
  28 C28           -0.5596    -6.0743    -4.2833 C.ar    
  29 C29           -1.5381    -6.7073    -5.0331 C.ar    
  30 C30           -1.1831    -7.3394    -6.2098 C.ar    
  31 N31            0.0699    -7.3508    -6.6209 N.ar    
  32 H32            3.3894    -0.4311    -0.4421 H       
  33 H33            3.1333     1.9395    -0.8695 H       
  34 H34            1.1131     5.3539    -0.4460 H       
  35 H35            2.5257     4.2884    -0.6397 H       
  36 H36            2.3739    -2.3402     1.1493 H       
  37 H37            0.6194    -2.5718     0.9577 H       
  38 H38            0.4139     4.1815    -2.8480 H       
  39 H39            1.5119     6.1695    -3.9778 H       
  40 H40            2.5406     6.4559    -2.4741 H       
  41 H41            3.5475     4.1409    -2.7221 H       
  42 H42            2.5188     3.8546    -4.2258 H       
  43 H43            3.1673    -4.1770     0.0798 H       
  44 H44            1.5204    -4.8393    -0.0497 H       
  45 H45            3.4121    -4.2867    -2.3812 H       
  46 H46            3.0188    -5.8905    -1.7151 H       
  47 H47            0.6430    -5.5716    -2.2996 H       
  48 H48            1.5825    -2.9136    -3.4734 H       
  49 H49           -0.0694    -3.5729    -3.5586 H       
  50 H50           -0.2205    -3.5328    -1.0889 H       
  51 H51            0.1479    -1.9110    -1.7227 H       
  52 H52            2.0447    -6.7908    -6.3062 H       
  53 H53           -0.8082    -5.5729    -3.3596 H       
  54 H54           -2.5660    -6.7069    -4.7017 H       
  55 H55           -1.9414    -7.8346    -6.7982 H       
@<TRIPOS>BOND
   1    1   13 1
   2    1    5 1
   3    1    8 2
   4    2    3 1
   5    2   10 1
   6    2   13 2
   7    3    4 2
   8    3   32 1
   9    4    5 1
  10    4   33 1
  11    5    6 1
  12    6    7 2
  13    6    9 1
  14    7    8 1
  15    9   11 1
  16    9   34 1
  17    9   35 1
  18   10   12 1
  19   10   36 1
  20   10   37 1
  21   11   15 1
  22   11   16 1
  23   11   38 1
  24   12   20 1
  25   12   24 1
  26   13   14 1
  27   14   17 1
  28   14   18 1
  29   14   19 1
  30   15   16 1
  31   15   39 1
  32   15   40 1
  33   16   41 1
  34   16   42 1
  35   20   21 1
  36   20   43 1
  37   20   44 1
  38   21   22 1
  39   21   45 1
  40   21   46 1
  41   22   23 1
  42   22   25 1
  43   22   47 1
  44   23   24 1
  45   23   48 1
  46   23   49 1
  47   24   50 1
  48   24   51 1
  49   25   26 1
  50   26   28 ar
  51   26   27 ar
  52   27   31 ar
  53   27   52 1
  54   28   29 ar
  55   28   53 1
  56   29   30 ar
  57   29   54 1
  58   30   31 ar
  59   30   55 1

#	End of record

