#	Name: ASD01917859
#	Creating user name:	WinNT
#	Creation time:	15. 06. 2019 20:10

#	Modifying user name:	WinNT
#	Modification time:	15. 06. 2019 20:10

#	Program:	/corina/corina34_cracker 3.40 0067  02.08.2006

@<TRIPOS>MOLECULE
ASD01917859
  50   54    0    0    0
SMALL
NO_CHARGES


@<TRIPOS>ATOM
   1 C1            -0.0146     1.3273     0.0001 C.2     
   2 C2            -0.0053    -0.0188     0.0026 C.2     
   3 C3            -1.2755    -0.8554     0.0141 C.3     
   4 C4            -2.4420     0.0108     0.4951 C.3     
   5 N5            -2.4110     1.2979    -0.2159 N.am    
   6 C6            -1.2588     2.1854     0.0202 C.3     
   7 C7            -3.4039     1.6536    -1.0549 C.2     
   8 O8            -4.2939     0.8652    -1.3131 O.2     
   9 S9             1.6467     1.9019    -0.0227 S.3     
  10 C10            2.2121     0.2889    -0.0221 C.2     
  11 N11            1.2188    -0.5286    -0.0075 N.2     
  12 C12            3.6634    -0.1167    -0.0371 C.3     
  13 O13            4.1068    -0.2503    -1.3890 O.3     
  14 C14            5.4023    -0.6136    -1.5804 C.ar    
  15 C15            5.8995    -0.7618    -2.8671 C.ar    
  16 C16            7.2167    -1.1313    -3.0590 C.ar    
  17 C17            8.0393    -1.3534    -1.9701 C.ar    
  18 C18            7.5460    -1.2069    -0.6867 C.ar    
  19 C19            6.2312    -0.8315    -0.4895 C.ar    
  20 C20           -3.4116     2.9933    -1.6578 C.2     
  21 C21           -3.8820     3.3506    -3.0087 C.ar    
  22 C22           -3.6924     4.7365    -3.1278 C.ar    
  23 N23           -3.1494     5.1833    -1.9409 N.pl3   
  24 C24           -2.9907     4.1527    -1.0760 C.2     
  25 C25           -2.7989     6.5765    -1.6541 C.3     
  26 C26           -4.4227     2.6259    -4.0681 C.ar    
  27 C27           -4.7699     3.2759    -5.2320 C.ar    
  28 C28           -4.5828     4.6456    -5.3515 C.ar    
  29 C29           -4.0491     5.3746    -4.3115 C.ar    
  30 H30           -1.4820    -1.2182    -0.9927 H       
  31 H31           -1.1480    -1.7020     0.6887 H       
  32 H32           -3.3835    -0.4977     0.2872 H       
  33 H33           -2.3493     0.1844     1.5672 H       
  34 H34           -1.3590     2.6724     0.9902 H       
  35 H35           -1.2020     2.9362    -0.7679 H       
  36 H36            4.2587     0.6447     0.4670 H       
  37 H37            3.7797    -1.0696     0.4792 H       
  38 H38            5.2573    -0.5888    -3.7179 H       
  39 H39            7.6042    -1.2471    -4.0604 H       
  40 H40            9.0688    -1.6422    -2.1222 H       
  41 H41            8.1904    -1.3816     0.1622 H       
  42 H42            5.8464    -0.7172     0.5131 H       
  43 H43           -2.5893     4.2363    -0.0768 H       
  44 H44           -3.6566     7.0832    -1.2116 H       
  45 H45           -1.9611     6.6045    -0.9574 H       
  46 H46           -2.5184     7.0786    -2.5801 H       
  47 H47           -4.5686     1.5596    -3.9778 H       
  48 H48           -5.1894     2.7168    -6.0553 H       
  49 H49           -4.8582     5.1450    -6.2686 H       
  50 H50           -3.9079     6.4403    -4.4149 H       
@<TRIPOS>BOND
   1    1    2 2
   2    1    9 1
   3    1    6 1
   4    2    3 1
   5    2   11 1
   6    3    4 1
   7    3   30 1
   8    3   31 1
   9    4    5 1
  10    4   32 1
  11    4   33 1
  12    5    6 1
  13    5    7 am
  14    6   34 1
  15    6   35 1
  16    7    8 2
  17    7   20 1
  18    9   10 1
  19   10   11 2
  20   10   12 1
  21   12   13 1
  22   12   36 1
  23   12   37 1
  24   13   14 1
  25   14   15 ar
  26   14   19 ar
  27   15   16 ar
  28   15   38 1
  29   16   17 ar
  30   16   39 1
  31   17   18 ar
  32   17   40 1
  33   18   19 ar
  34   18   41 1
  35   19   42 1
  36   20   21 1
  37   20   24 2
  38   21   22 ar
  39   21   26 ar
  40   22   23 1
  41   22   29 ar
  42   23   25 1
  43   23   24 1
  44   24   43 1
  45   25   44 1
  46   25   45 1
  47   25   46 1
  48   26   27 ar
  49   26   47 1
  50   27   28 ar
  51   27   48 1
  52   28   29 ar
  53   28   49 1
  54   29   50 1

#	End of record

