#	Name: ASD00170131
#	Creating user name:	WinNT
#	Creation time:	15. 06. 2019 18:31

#	Modifying user name:	WinNT
#	Modification time:	15. 06. 2019 18:31

#	Program:	/corina/corina34_cracker 3.40 0067  02.08.2006

@<TRIPOS>MOLECULE
ASD00170131
  37   40    0    0    0
SMALL
NO_CHARGES


@<TRIPOS>ATOM
   1 C1            -0.0182     1.4914     0.0102 C.2     
   2 C2             0.0021    -0.0041     0.0020 C.ar    
   3 C3             1.3190    -0.4523    -0.0130 C.ar    
   4 C4             2.1958     0.7739    -0.0148 C.3     
   5 C5             1.2473     1.9527     0.0006 C.2     
   6 S6             1.2222     3.7155     0.0098 S.3     
   7 C7            -0.5366     3.6919     0.0263 C.2     
   8 N8            -0.9504     2.4701     0.0195 N.2     
   9 C9            -1.0453    -0.9282     0.0075 C.ar    
  10 C10           -0.7701    -2.2774    -0.0020 C.ar    
  11 C11            0.5516    -2.7230    -0.0170 C.ar    
  12 C12            1.5976    -1.7992    -0.0233 C.ar    
  13 N13           -1.3514     4.8123     0.0397 N.pl3   
  14 C14            0.8449    -4.1767    -0.0273 C.ar    
  15 C15           -0.1985    -5.1009    -0.0219 C.ar    
  16 C16            0.0804    -6.4525    -0.0315 C.ar    
  17 C17            1.3925    -6.8906    -0.0459 C.ar    
  18 C18            2.4320    -5.9779    -0.0508 C.ar    
  19 C19            2.1649    -4.6239    -0.0481 C.ar    
  20 C20           -1.0465    -7.4530    -0.0257 C.3     
  21 C21            3.8587    -6.4630    -0.0655 C.3     
  22 H22            2.8272     0.7868     0.8736 H       
  23 H23            2.8102     0.7964    -0.9148 H       
  24 H24           -2.0693    -0.5851     0.0195 H       
  25 H25           -1.5796    -2.9924     0.0026 H       
  26 H26            2.6221    -2.1407    -0.0351 H       
  27 H27           -0.9573     5.6986     0.0405 H       
  28 H28           -2.3160     4.7104     0.0483 H       
  29 H29           -1.2232    -4.7600    -0.0100 H       
  30 H30            1.6061    -7.9492    -0.0529 H       
  31 H31            2.9773    -3.9122    -0.0523 H       
  32 H32           -1.3281    -7.6890    -1.0519 H       
  33 H33           -0.7224    -8.3624     0.4804 H       
  34 H34           -1.9041    -7.0313     0.4985 H       
  35 H35            4.1937    -6.5753    -1.0966 H       
  36 H36            4.4937    -5.7398     0.4462 H       
  37 H37            3.9206    -7.4249     0.4435 H       
@<TRIPOS>BOND
   1    1    2 1
   2    1    5 2
   3    1    8 1
   4    2    3 ar
   5    2    9 ar
   6    3    4 1
   7    3   12 ar
   8    4    5 1
   9    4   22 1
  10    4   23 1
  11    5    6 1
  12    6    7 1
  13    7    8 2
  14    7   13 1
  15    9   10 ar
  16    9   24 1
  17   10   11 ar
  18   10   25 1
  19   11   12 ar
  20   11   14 1
  21   12   26 1
  22   13   27 1
  23   13   28 1
  24   14   15 ar
  25   14   19 ar
  26   15   16 ar
  27   15   29 1
  28   16   17 ar
  29   16   20 1
  30   17   18 ar
  31   17   30 1
  32   18   19 ar
  33   18   21 1
  34   19   31 1
  35   20   32 1
  36   20   33 1
  37   20   34 1
  38   21   35 1
  39   21   36 1
  40   21   37 1

#	End of record

