#	Name: ASD01900621
#	Creating user name:	WinNT
#	Creation time:	15. 06. 2019 19:52

#	Modifying user name:	WinNT
#	Modification time:	15. 06. 2019 19:52

#	Program:	/corina/corina34_cracker 3.40 0067  02.08.2006

@<TRIPOS>MOLECULE
ASD01900621
  34   37    0    0    0
SMALL
NO_CHARGES


@<TRIPOS>ATOM
   1 C1            -0.0167     1.3818     0.0096 C.ar    
   2 C2             0.0021    -0.0041     0.0020 C.ar    
   3 C3             1.1996    -0.6926    -0.0148 C.ar    
   4 C4             2.4004     0.0041    -0.0248 C.ar    
   5 C5             2.3760     1.4056    -0.0131 C.ar    
   6 C6             1.1681     2.0907     0.0021 C.ar    
   7 O7             3.5776    -0.6563    -0.0529 O.3     
   8 C8             4.7395    -0.0433     0.2319 C.2     
   9 C9             4.8690     1.3039     0.2645 C.2     
  10 C10            3.6747     2.1255    -0.0105 C.2     
  11 N11            3.7553     3.4140    -0.2375 N.2     
  12 C12            5.9249    -0.8746     0.5220 C.ar    
  13 N13            7.0869    -0.2799     0.8069 N.ar    
  14 C14            8.1781    -0.9528     1.0740 C.ar    
  15 C15            8.1624    -2.3587     1.0696 C.ar    
  16 C16            6.9466    -3.0298     0.7717 C.ar    
  17 C17            5.8073    -2.2556     0.4987 C.ar    
  18 C18            9.3115    -3.1131     1.3504 C.ar    
  19 C19            9.2436    -4.4737     1.3329 C.ar    
  20 C20            8.0503    -5.1313     1.0405 C.ar    
  21 C21            6.9142    -4.4327     0.7629 C.ar    
  22 O22            5.0163     4.0580    -0.2235 O.3     
  23 Br23          -1.6282    -0.9622     0.0153 Br      
  24 H24           -0.9598     1.9081     0.0170 H       
  25 H25            1.2016    -1.7725    -0.0197 H       
  26 H26            1.1556     3.1706     0.0074 H       
  27 H27            5.8205     1.7646     0.4850 H       
  28 H28            9.0938    -0.4258     1.2981 H       
  29 H29            4.8627    -2.7255     0.2674 H       
  30 H30           10.2441    -2.6184     1.5785 H       
  31 H31           10.1296    -5.0523     1.5489 H       
  32 H32            8.0259    -6.2110     1.0338 H       
  33 H33            5.9958    -4.9545     0.5378 H       
  34 H34            4.9750     5.0076    -0.4014 H       
@<TRIPOS>BOND
   1    1    2 ar
   2    1    6 ar
   3    1   24 1
   4    2    3 ar
   5    2   23 1
   6    3    4 ar
   7    3   25 1
   8    4    5 ar
   9    4    7 1
  10    5    6 ar
  11    5   10 1
  12    6   26 1
  13    7    8 1
  14    8    9 2
  15    8   12 1
  16    9   10 1
  17    9   27 1
  18   10   11 2
  19   11   22 1
  20   12   13 ar
  21   12   17 ar
  22   13   14 ar
  23   14   15 ar
  24   14   28 1
  25   15   16 ar
  26   15   18 ar
  27   16   17 ar
  28   16   21 ar
  29   17   29 1
  30   18   19 ar
  31   18   30 1
  32   19   20 ar
  33   19   31 1
  34   20   21 ar
  35   20   32 1
  36   21   33 1
  37   22   34 1

#	End of record

