#	Name: ASD01850026
#	Creating user name:	WinNT
#	Creation time:	15. 06. 2019 19:38

#	Modifying user name:	WinNT
#	Modification time:	15. 06. 2019 19:38

#	Program:	/corina/corina34_cracker 3.40 0067  02.08.2006

@<TRIPOS>MOLECULE
ASD01850026
  52   56    0    0    0
SMALL
NO_CHARGES


@<TRIPOS>ATOM
   1 C1             1.0853     1.1121     0.2212 C.3     
   2 C2             0.8139    -0.3666     0.1173 C.ar    
   3 C3             0.8111    -1.1505     1.2559 C.ar    
   4 C4             0.5622    -2.5069     1.1606 C.ar    
   5 C5             0.3155    -3.0793    -0.0733 C.ar    
   6 C6             0.3173    -2.2952    -1.2118 C.ar    
   7 C7             0.5620    -0.9381    -1.1159 C.ar    
   8 C8             0.0451    -4.5582    -0.1773 C.3     
   9 N9            -0.6197    -5.0551     1.0331 N.am    
  10 C10            0.4514    -5.5407     1.9295 C.3     
  11 C11            1.7688    -5.3563     1.1378 C.3     
  12 N12            1.3123    -5.3253    -0.2627 N.am    
  13 C13            1.4838    -5.6818    -1.5359 C.2     
  14 O14            2.5351    -6.0435    -2.0273 O.2     
  15 C15            0.1984    -5.5695    -2.2587 C.ar    
  16 C16           -0.7200    -4.8759    -1.4302 C.ar    
  17 C17           -2.0068    -4.6516    -1.8623 C.ar    
  18 C18           -2.4050    -5.0928    -3.1128 C.ar    
  19 C19           -1.5122    -5.7605    -3.9328 C.ar    
  20 C20           -0.2105    -5.9947    -3.5225 C.ar    
  21 C21           -1.9448    -5.0660     1.2794 C.2     
  22 O22           -2.7131    -4.5417     0.4962 O.2     
  23 C23           -2.4629    -5.7138     2.4988 C.ar    
  24 C24           -3.8404    -5.8803     2.6723 C.ar    
  25 C25           -4.3191    -6.4828     3.8069 C.ar    
  26 C26           -3.4348    -6.9289     4.7863 C.ar    
  27 C27           -2.0620    -6.7644     4.6162 C.ar    
  28 C28           -1.5772    -6.1679     3.4811 C.ar    
  29 S29           -4.0538    -7.7023     6.2435 S.3     
  30 C30           -2.5447    -8.0879     7.1733 C.3     
  31 F31           -1.8500    -6.9047     7.4463 F       
  32 F32           -2.8856    -8.7165     8.3758 F       
  33 F33           -1.7346    -8.9400     6.4150 F       
  34 H34            2.1562     1.2924     0.1274 H       
  35 H35            0.5575     1.6353    -0.5761 H       
  36 H36            0.7386     1.4782     1.1876 H       
  37 H37            1.0039    -0.7033     2.2199 H       
  38 H38            0.5607    -3.1195     2.0500 H       
  39 H39            0.1249    -2.7425    -2.1758 H       
  40 H40            0.5634    -0.3255    -2.0054 H       
  41 H41            0.4750    -4.9484     2.8442 H       
  42 H42            0.2973    -6.5937     2.1652 H       
  43 H43            2.2517    -4.4168     1.4067 H       
  44 H44            2.4405    -6.1981     1.3058 H       
  45 H45           -2.7068    -4.1312    -1.2255 H       
  46 H46           -3.4158    -4.9156    -3.4493 H       
  47 H47           -1.8276    -6.0981    -4.9090 H       
  48 H48            0.4761    -6.5168    -4.1724 H       
  49 H49           -4.5265    -5.5343     1.9134 H       
  50 H50           -5.3829    -6.6113     3.9416 H       
  51 H51           -1.3787    -7.1110     5.3774 H       
  52 H52           -0.5128    -6.0406     3.3497 H       
@<TRIPOS>BOND
   1    1    2 1
   2    1   34 1
   3    1   35 1
   4    1   36 1
   5    2    3 ar
   6    2    7 ar
   7    3    4 ar
   8    3   37 1
   9    4    5 ar
  10    4   38 1
  11    5    6 ar
  12    5    8 1
  13    6    7 ar
  14    6   39 1
  15    7   40 1
  16    8    9 1
  17    8   12 1
  18    8   16 1
  19    9   10 1
  20    9   21 am
  21   10   11 1
  22   10   41 1
  23   10   42 1
  24   11   12 1
  25   11   43 1
  26   11   44 1
  27   12   13 am
  28   13   14 2
  29   13   15 1
  30   15   16 ar
  31   15   20 ar
  32   16   17 ar
  33   17   18 ar
  34   17   45 1
  35   18   19 ar
  36   18   46 1
  37   19   20 ar
  38   19   47 1
  39   20   48 1
  40   21   22 2
  41   21   23 1
  42   23   24 ar
  43   23   28 ar
  44   24   25 ar
  45   24   49 1
  46   25   26 ar
  47   25   50 1
  48   26   27 ar
  49   26   29 1
  50   27   28 ar
  51   27   51 1
  52   28   52 1
  53   29   30 1
  54   30   31 1
  55   30   32 1
  56   30   33 1

#	End of record

