#	Name: ASD01815377
#	Creating user name:	WinNT
#	Creation time:	15. 06. 2019 19:33

#	Modifying user name:	WinNT
#	Modification time:	15. 06. 2019 19:33

#	Program:	/corina/corina34_cracker 3.40 0067  02.08.2006

@<TRIPOS>MOLECULE
ASD01815377
  43   46    0    0    0
SMALL
NO_CHARGES


@<TRIPOS>ATOM
   1 C1             0.1025     1.4776     0.3764 C.ar    
   2 C2             0.0835     0.0904     0.3685 C.ar    
   3 C3             1.2525    -0.6292     0.2316 C.ar    
   4 C4             2.4694     0.0390     0.0990 C.ar    
   5 C5             2.4838     1.4437     0.1071 C.ar    
   6 C6             1.2934     2.1574     0.2467 C.ar    
   7 N7             3.6452    -0.6678    -0.0381 N.pl3   
   8 C8             4.8379    -0.0736    -0.1676 C.2     
   9 C9             4.9787     1.2997    -0.1740 C.2     
  10 C10            3.7773     2.1382    -0.0341 C.2     
  11 O11            3.8483     3.3546    -0.0341 O.2     
  12 C12            6.3060     1.9141    -0.3180 C.2     
  13 O13            7.2917     1.2119    -0.4329 O.2     
  14 O14            6.4305     3.2564    -0.3228 O.3     
  15 H15            1.3055     3.2373     0.2525 H       
  16 F16            1.2186    -1.9798     0.2266 F       
  17 C17            3.5871    -2.1316    -0.0416 C.3     
  18 C18            3.4443    -2.6253    -1.4583 C.ar    
  19 C19            4.5636    -2.7705    -2.2656 C.ar    
  20 C20            2.1974    -2.9431    -1.9642 C.ar    
  21 N21            2.0593    -3.3760    -3.2009 N.ar    
  22 C22            3.1033    -3.5236    -4.0067 C.ar    
  23 C23            4.3895    -3.2267    -3.5607 C.ar    
  24 H24            5.2382    -3.3469    -4.2176 H       
  25 C25            2.9000    -4.0145    -5.3911 C.ar    
  26 C26            3.9914    -4.2738    -6.2157 C.ar    
  27 N27            3.8149    -4.7098    -7.4469 N.ar    
  28 C28            2.6074    -4.9177    -7.9460 C.ar    
  29 C29            1.4691    -4.6814    -7.1834 C.ar    
  30 C30            1.6084    -4.2294    -5.8857 C.ar    
  31 O31            2.4782    -5.3671    -9.2191 O.3     
  32 H32           -0.8214     2.0272     0.4803 H       
  33 H33           -0.8564    -0.4316     0.4709 H       
  34 H34            5.7194    -0.6892    -0.2702 H       
  35 H35            7.3237     3.6141    -0.4201 H       
  36 H36            4.5030    -2.5327     0.3923 H       
  37 H37            2.7312    -2.4627     0.5465 H       
  38 H38            5.5485    -2.5326    -1.8917 H       
  39 H39            1.3248    -2.8354    -1.3370 H       
  40 H40            4.9926    -4.1158    -5.8429 H       
  41 H41            0.4875    -4.8533    -7.5995 H       
  42 H42            0.7416    -4.0379    -5.2706 H       
  43 H43            2.4635    -6.3309    -9.2965 H       
@<TRIPOS>BOND
   1    1    2 ar
   2    1    6 ar
   3    1   32 1
   4    2    3 ar
   5    2   33 1
   6    3    4 ar
   7    3   16 1
   8    4    5 ar
   9    4    7 1
  10    5    6 ar
  11    5   10 1
  12    6   15 1
  13    7    8 1
  14    7   17 1
  15    8    9 2
  16    8   34 1
  17    9   10 1
  18    9   12 1
  19   10   11 2
  20   12   13 2
  21   12   14 1
  22   14   35 1
  23   17   18 1
  24   17   36 1
  25   17   37 1
  26   18   19 ar
  27   18   20 ar
  28   19   23 ar
  29   19   38 1
  30   20   21 ar
  31   20   39 1
  32   21   22 ar
  33   22   23 ar
  34   22   25 1
  35   23   24 1
  36   25   26 ar
  37   25   30 ar
  38   26   27 ar
  39   26   40 1
  40   27   28 ar
  41   28   29 ar
  42   28   31 1
  43   29   30 ar
  44   29   41 1
  45   30   42 1
  46   31   43 1

#	End of record

