#	Name: ASD05730161
#	Creating user name:	WinNT
#	Creation time:	15. 06. 2019 21:02

#	Modifying user name:	WinNT
#	Modification time:	15. 06. 2019 21:02

#	Program:	/corina/corina34_cracker 3.40 0067  02.08.2006

@<TRIPOS>MOLECULE
ASD05730161
  18   19    0    0    0
SMALL
NO_CHARGES


@<TRIPOS>ATOM
   1 C1            -0.0168     1.3856     0.0097 C.ar    
   2 C2             0.0021    -0.0041     0.0020 C.ar    
   3 C3             1.2146    -0.6759    -0.0131 C.ar    
   4 C4             2.4042     0.0267    -0.0207 C.ar    
   5 C5             2.4015     1.4130    -0.0132 C.ar    
   6 C6             1.1941     2.1007     0.0019 C.ar    
   7 C7             1.1632     3.5795     0.0096 C.2     
   8 C8            -0.1305     4.2845     0.0251 C.2     
   9 C9            -1.2863     3.6037     0.0326 C.2     
  10 C10           -1.2961     2.1273     0.0197 C.2     
  11 O11           -2.3506     1.5243     0.0219 O.2     
  12 O12            2.2013     4.2109     0.0034 O.2     
  13 Br13          -2.9248     4.5475     0.0532 Br      
  14 H14           -0.9247    -0.5586     0.0082 H       
  15 H15            1.2294    -1.7558    -0.0187 H       
  16 H16            3.3426    -0.5078    -0.0321 H       
  17 H17            3.3346     1.9567    -0.0191 H       
  18 H18           -0.1484     5.3643     0.0310 H       
@<TRIPOS>BOND
   1    1    2 ar
   2    1    6 ar
   3    1   10 1
   4    2    3 ar
   5    2   14 1
   6    3    4 ar
   7    3   15 1
   8    4    5 ar
   9    4   16 1
  10    5    6 ar
  11    5   17 1
  12    6    7 1
  13    7    8 1
  14    7   12 2
  15    8    9 2
  16    8   18 1
  17    9   10 1
  18    9   13 1
  19   10   11 2

#	End of record

