#	Name: ASD00310400
#	Creating user name:	WinNT
#	Creation time:	15. 06. 2019 18:34

#	Modifying user name:	WinNT
#	Modification time:	15. 06. 2019 18:34

#	Program:	/corina/corina34_cracker 3.40 0067  02.08.2006

@<TRIPOS>MOLECULE
ASD00310400
  42   44    0    0    0
SMALL
NO_CHARGES


@<TRIPOS>ATOM
   1 N1            -0.0163     1.3500     0.0095 N.pl3   
   2 C2             0.0021    -0.0041     0.0020 C.2     
   3 C3             1.2921    -0.4483    -0.0127 C.2     
   4 C4             2.1475     0.7539    -0.0144 C.ar    
   5 C5             3.5230     0.9583    -0.0268 C.ar    
   6 C6             4.0239     2.2538    -0.0251 C.ar    
   7 C7             3.1465     3.3436    -0.0108 C.ar    
   8 C8             1.7850     3.1436     0.0020 C.ar    
   9 C9             1.2694     1.8502    -0.0001 C.ar    
  10 C10            1.7402    -1.8454    -0.0237 C.2     
  11 O11            2.9286    -2.1027    -0.0361 O.2     
  12 O12            0.8342    -2.8441    -0.0202 O.3     
  13 C13            5.4899     2.4821    -0.0378 C.ar    
  14 C14            6.0526     3.3598    -0.9621 C.ar    
  15 C15            7.4189     3.5689    -0.9689 C.ar    
  16 C16            8.2271     2.9070    -0.0584 C.ar    
  17 C17            7.6718     2.0350     0.8597 C.ar    
  18 C18            6.3077     1.8239     0.8784 C.ar    
  19 C19           10.3713     2.2943     1.0260 C.3     
  20 C20            9.7162     3.1380    -0.0695 C.3     
  21 C21           10.2847     2.7354    -1.4317 C.3     
  22 C22           10.0046     4.6187     0.1861 C.3     
  23 O23           11.7834     2.5133     1.0156 O.3     
  24 F24            7.9670     4.4191    -1.8643 F       
  25 Cl25           3.7800     4.9599    -0.0087 Cl      
  26 H26           -0.8206     1.8922     0.0164 H       
  27 H27           -0.8729    -0.6372     0.0073 H       
  28 H28            4.1975     0.1150    -0.0374 H       
  29 H29            1.1155     3.9910     0.0132 H       
  30 H30            1.1773    -3.7482    -0.0278 H       
  31 H31            5.4227     3.8754    -1.6719 H       
  32 H32            8.3063     1.5211     1.5667 H       
  33 H33            5.8754     1.1457     1.5993 H       
  34 H34            9.9663     2.5811     1.9965 H       
  35 H35           10.1659     1.2395     0.8439 H       
  36 H36            9.8180     3.3364    -2.2121 H       
  37 H37           11.3618     2.9025    -1.4397 H       
  38 H38           10.0793     1.6805    -1.6138 H       
  39 H39            9.5996     4.9054     1.1566 H       
  40 H40           11.0817     4.7857     0.1781 H       
  41 H41            9.5379     5.2197    -0.5943 H       
  42 H42           12.2646     2.0091     1.6859 H       
@<TRIPOS>BOND
   1    1    2 1
   2    1    9 1
   3    1   26 1
   4    2    3 2
   5    2   27 1
   6    3    4 1
   7    3   10 1
   8    4    5 ar
   9    4    9 ar
  10    5    6 ar
  11    5   28 1
  12    6    7 ar
  13    6   13 1
  14    7    8 ar
  15    7   25 1
  16    8    9 ar
  17    8   29 1
  18   10   11 2
  19   10   12 1
  20   12   30 1
  21   13   14 ar
  22   13   18 ar
  23   14   15 ar
  24   14   31 1
  25   15   16 ar
  26   15   24 1
  27   16   17 ar
  28   16   20 1
  29   17   18 ar
  30   17   32 1
  31   18   33 1
  32   19   20 1
  33   19   23 1
  34   19   34 1
  35   19   35 1
  36   20   21 1
  37   20   22 1
  38   21   36 1
  39   21   37 1
  40   21   38 1
  41   22   39 1
  42   22   40 1
  43   22   41 1
  44   23   42 1

#	End of record

