#	Name: ASD01880215
#	Creating user name:	WinNT
#	Creation time:	15. 06. 2019 19:40

#	Modifying user name:	WinNT
#	Modification time:	15. 06. 2019 19:40

#	Program:	/corina/corina34_cracker 3.40 0067  02.08.2006

@<TRIPOS>MOLECULE
ASD01880215
  41   43    0    0    0
SMALL
NO_CHARGES


@<TRIPOS>ATOM
   1 C1            -0.0184     1.5028     0.0103 C.3     
   2 C2             0.0021    -0.0041     0.0020 C.ar    
   3 C3             0.0229    -0.7006     1.1962 C.ar    
   4 C4             0.0416    -2.0819     1.1913 C.ar    
   5 C5             0.0396    -2.7702    -0.0132 C.ar    
   6 C6             0.0187    -2.0690    -1.2101 C.ar    
   7 C7            -0.0057    -0.6878    -1.1997 C.ar    
   8 O8             0.0585    -4.1290    -0.0207 O.3     
   9 C9             0.0551    -4.7709    -1.2974 C.3     
  10 N10            1.3560     2.0099    -0.0001 N.am    
  11 C11            2.1471     2.3124    -1.2027 C.3     
  12 C12            3.4948     2.8051    -0.6411 C.3     
  13 O13            3.3236     2.7294     0.8038 O.3     
  14 C14            2.0955     2.2792     1.0845 C.2     
  15 C15            4.6325     1.8884    -1.0952 C.3     
  16 O16            1.6905     2.1211     2.2191 O.2     
  17 C17            0.0778    -6.2658    -1.1082 C.ar    
  18 C18           -1.1088    -6.9681    -1.0098 C.ar    
  19 C19           -1.0880    -8.3393    -0.8362 C.ar    
  20 C20            0.1194    -9.0083    -0.7614 C.ar    
  21 C21            1.3059    -8.3061    -0.8607 C.ar    
  22 C22            1.2851    -6.9354    -1.0386 C.ar    
  23 H23           -0.5455     1.8639    -0.8728 H       
  24 H24           -0.5286     1.8543     0.9071 H       
  25 H25            0.0248    -0.1643     2.1337 H       
  26 H26            0.0582    -2.6255     2.1244 H       
  27 H27            0.0171    -2.6025    -2.1491 H       
  28 H28           -0.0220    -0.1414    -2.1312 H       
  29 H29           -0.8443    -4.4875    -1.8442 H       
  30 H30            0.9354    -4.4626    -1.8614 H       
  31 H31            2.2883     1.4143    -1.8041 H       
  32 H32            1.6675     3.0958    -1.7895 H       
  33 H33            3.6846     3.8330    -0.9500 H       
  34 H34            4.6832     1.8842    -2.1840 H       
  35 H35            5.5763     2.2520    -0.6889 H       
  36 H36            4.4485     0.8758    -0.7361 H       
  37 H37           -2.0521    -6.4454    -1.0683 H       
  38 H38           -2.0151    -8.8880    -0.7587 H       
  39 H39            0.1356   -10.0796    -0.6251 H       
  40 H40            2.2492    -8.8287    -0.8019 H       
  41 H41            2.2121    -6.3868    -1.1162 H       
@<TRIPOS>BOND
   1    1    2 1
   2    1   10 1
   3    1   23 1
   4    1   24 1
   5    2    3 ar
   6    2    7 ar
   7    3    4 ar
   8    3   25 1
   9    4    5 ar
  10    4   26 1
  11    5    6 ar
  12    5    8 1
  13    6    7 ar
  14    6   27 1
  15    7   28 1
  16    8    9 1
  17    9   17 1
  18    9   29 1
  19    9   30 1
  20   10   11 1
  21   10   14 am
  22   11   12 1
  23   11   31 1
  24   11   32 1
  25   12   13 1
  26   12   15 1
  27   12   33 1
  28   13   14 1
  29   14   16 2
  30   15   34 1
  31   15   35 1
  32   15   36 1
  33   17   18 ar
  34   17   22 ar
  35   18   19 ar
  36   18   37 1
  37   19   20 ar
  38   19   38 1
  39   20   21 ar
  40   20   39 1
  41   21   22 ar
  42   21   40 1
  43   22   41 1

#	End of record

