#	Name: ASD07301387
#	Creating user name:	WinNT
#	Creation time:	15. 06. 2019 21:11

#	Modifying user name:	WinNT
#	Modification time:	15. 06. 2019 21:11

#	Program:	/corina/corina34_cracker 3.40 0067  02.08.2006

@<TRIPOS>MOLECULE
ASD07301387
  35   35    0    0    0
SMALL
NO_CHARGES


@<TRIPOS>ATOM
   1 C1            -0.0342     1.4631    -0.1361 C.2     
   2 C2            -0.0011    -0.0025    -0.0193 C.2     
   3 C3             1.2786    -0.7092    -0.0450 C.2     
   4 C4             1.3126    -2.2111     0.0746 C.3     
   5 O5             1.0027     2.0974    -0.1231 O.2     
   6 O6            -1.2141     2.1026    -0.2632 O.3     
   7 N7            -1.1278    -0.6807     0.1089 N.2     
   8 N8            -2.2367    -0.0555     0.3170 N.pl3   
   9 C9            -3.4422    -0.7576     0.3260 C.ar    
  10 C10           -4.6384    -0.0855     0.5501 C.ar    
  11 C11           -5.8294    -0.7836     0.5578 C.ar    
  12 C12           -5.8336    -2.1501     0.3428 C.ar    
  13 C13           -4.6457    -2.8221     0.1199 C.ar    
  14 C14           -3.4509    -2.1297     0.1051 C.ar    
  15 C15           -7.1266    -0.0561     0.8011 C.3     
  16 F16           -7.6564     0.3738    -0.4202 F       
  17 F17           -8.0345    -0.9180     1.4257 F       
  18 F18           -6.8931     1.0511     1.6238 F       
  19 O19            2.3137    -0.0862    -0.1628 O.2     
  20 O20            2.6674    -2.6625     0.0233 O.3     
  21 C21            2.8121    -4.0802     0.1290 C.3     
  22 C22           -1.1709     3.5498    -0.3735 C.3     
  23 H23            0.8656    -2.5102     1.0227 H       
  24 H24            0.7506    -2.6539    -0.7477 H       
  25 H25           -2.2325     0.9028     0.4673 H       
  26 H26           -4.6359     0.9813     0.7184 H       
  27 H27           -6.7669    -2.6936     0.3493 H       
  28 H28           -4.6528    -3.8891    -0.0468 H       
  29 H29           -2.5240    -2.6545    -0.0734 H       
  30 H30            2.2813    -4.5618    -0.6922 H       
  31 H31            3.8691    -4.3421     0.0816 H       
  32 H32            2.3962    -4.4181     1.0782 H       
  33 H33           -0.5898     3.8300    -1.2521 H       
  34 H34           -2.1852     3.9372    -0.4701 H       
  35 H35           -0.7054     3.9685     0.5187 H       
@<TRIPOS>BOND
   1    1    2 1
   2    1    5 2
   3    1    6 1
   4    2    3 1
   5    2    7 2
   6    3    4 1
   7    3   19 2
   8    4   20 1
   9    4   23 1
  10    4   24 1
  11    6   22 1
  12    7    8 1
  13    8    9 1
  14    8   25 1
  15    9   10 ar
  16    9   14 ar
  17   10   11 ar
  18   10   26 1
  19   11   12 ar
  20   11   15 1
  21   12   13 ar
  22   12   27 1
  23   13   14 ar
  24   13   28 1
  25   14   29 1
  26   15   16 1
  27   15   17 1
  28   15   18 1
  29   20   21 1
  30   21   30 1
  31   21   31 1
  32   21   32 1
  33   22   33 1
  34   22   34 1
  35   22   35 1

#	End of record

