#	Name: ASD00960236
#	Creating user name:	WinNT
#	Creation time:	15. 06. 2019 18:53

#	Modifying user name:	WinNT
#	Modification time:	15. 06. 2019 18:53

#	Program:	/corina/corina34_cracker 3.40 0067  02.08.2006

@<TRIPOS>MOLECULE
ASD00960236
  36   38    0    0    0
SMALL
NO_CHARGES


@<TRIPOS>ATOM
   1 C1            -0.0167     1.3806     0.0096 C.2     
   2 N2             2.1184     0.7209    -0.0143 N.pl3   
   3 C3             1.3305    -0.4046    -0.0128 C.2     
   4 C4             0.0021    -0.0041     0.0020 C.2     
   5 N5             3.5113     0.5649    -0.0288 N.2     
   6 C6             4.0372    -0.6406    -0.0407 C.2     
   7 N7             3.2780    -1.7437    -0.0394 N.2     
   8 C8             1.9608    -1.6743    -0.0257 C.2     
   9 N9             1.2023    -2.8285    -0.0248 N.pl3   
  10 C10            1.3032     1.8195    -0.0006 C.2     
  11 C11            5.5094    -0.7819    -0.0565 C.2     
  12 N12            6.2917     0.3155    -0.0585 N.am    
  13 S13            6.2197    -2.3396    -0.0721 S.2     
  14 C14            1.7430     3.2133     0.0027 C.2     
  15 O15            0.9213     4.1105     0.0158 O.2     
  16 O16            3.0604     3.5051    -0.0088 O.3     
  17 C17            3.4186     4.8885    -0.0048 C.3     
  18 C18            4.9199     5.0187    -0.0190 C.ar    
  19 C19            5.5965     5.0850    -1.2226 C.ar    
  20 C20            6.9736     5.2045    -1.2357 C.ar    
  21 C21            7.6741     5.2580    -0.0451 C.ar    
  22 C22            6.9974     5.1926     1.1585 C.ar    
  23 C23            5.6199     5.0776     1.1715 C.ar    
  24 H24           -0.8969     2.0064     0.0174 H       
  25 H25           -0.8604    -0.6540     0.0073 H       
  26 H26            1.6380    -3.6951    -0.0343 H       
  27 H27            0.2340    -2.7725    -0.0147 H       
  28 H28            5.8893     1.1980    -0.0496 H       
  29 H29            7.2572     0.2228    -0.0688 H       
  30 H30            3.0034     5.3738    -0.8880 H       
  31 H31            3.0211     5.3641     0.8918 H       
  32 H32            5.0493     5.0432    -2.1528 H       
  33 H33            7.5023     5.2556    -2.1760 H       
  34 H34            8.7501     5.3506    -0.0553 H       
  35 H35            7.5446     5.2341     2.0886 H       
  36 H36            5.0908     5.0302     2.1119 H       
@<TRIPOS>BOND
   1    1    4 1
   2    1   10 2
   3    1   24 1
   4    2    3 1
   5    2    5 1
   6    2   10 1
   7    3    4 2
   8    3    8 1
   9    4   25 1
  10    5    6 2
  11    6    7 1
  12    6   11 1
  13    7    8 2
  14    8    9 1
  15    9   26 1
  16    9   27 1
  17   10   14 1
  18   11   12 am
  19   11   13 2
  20   12   28 1
  21   12   29 1
  22   14   15 2
  23   14   16 1
  24   16   17 1
  25   17   18 1
  26   17   30 1
  27   17   31 1
  28   18   19 ar
  29   18   23 ar
  30   19   20 ar
  31   19   32 1
  32   20   21 ar
  33   20   33 1
  34   21   22 ar
  35   21   34 1
  36   22   23 ar
  37   22   35 1
  38   23   36 1

#	End of record

