#	Name: ASD01100042
#	Creating user name:	WinNT
#	Creation time:	15. 06. 2019 18:58

#	Modifying user name:	WinNT
#	Modification time:	15. 06. 2019 18:58

#	Program:	/corina/corina34_cracker 3.40 0067  02.08.2006

@<TRIPOS>MOLECULE
ASD01100042
  46   47    0    0    0
SMALL
NO_CHARGES


@<TRIPOS>ATOM
   1 C1             0.1623     1.2947    -0.9231 C.ar    
   2 C2             0.2403    -0.0848    -0.9932 C.ar    
   3 C3             1.4412    -0.7231    -0.7393 C.ar    
   4 C4             2.5624     0.0177    -0.4158 C.ar    
   5 C5             2.4839     1.3961    -0.3459 C.ar    
   6 C6             1.2841     2.0344    -0.5995 C.ar    
   7 C7             3.7065     2.2032     0.0074 C.3     
   8 C8             3.4373     3.0054     1.2821 C.3     
   9 C9             3.2214     2.0447     2.4532 C.3     
  10 C10            4.6355     3.9095     1.5784 C.3     
  11 Cl11          -1.1684    -1.0146    -1.3990 Cl      
  12 C12            4.0285     3.1477    -1.1219 C.2     
  13 N13            5.1808     3.8466    -1.1081 N.am    
  14 O14            3.2507     3.2789    -2.0431 O.2     
  15 C15            5.4411     4.7774    -2.1070 C.2     
  16 N16            6.5142     5.5000    -2.1872 N.2     
  17 C17            6.5973     6.3356    -3.2055 C.2     
  18 C18            5.5442     6.3182    -4.0248 C.2     
  19 S19            4.3957     5.1306    -3.4130 S.3     
  20 C20            7.7853     7.2364    -3.4252 C.3     
  21 C21            7.4155     8.6708    -3.0421 C.3     
  22 C22            8.9526     6.7617    -2.5575 C.3     
  23 C23            8.1939     7.1913    -4.8989 C.3     
  24 H24           -0.7738     1.7938    -1.1255 H       
  25 H25            1.5026    -1.8000    -0.7935 H       
  26 H26            3.4998    -0.4804    -0.2172 H       
  27 H27            1.2234     3.1113    -0.5447 H       
  28 H28            4.5498     1.5323     0.1716 H       
  29 H29            2.5456     3.6171     1.1449 H       
  30 H30            4.1130     1.4329     2.5904 H       
  31 H31            3.0296     2.6162     3.3613 H       
  32 H32            2.3678     1.4006     2.2422 H       
  33 H33            4.8522     4.5235     0.7042 H       
  34 H34            4.4036     4.5538     2.4264 H       
  35 H35            5.5042     3.2954     1.8155 H       
  36 H36            5.8285     3.7000    -0.4010 H       
  37 H37            5.4191     6.9240    -4.9102 H       
  38 H38            7.1243     8.7029    -1.9922 H       
  39 H39            8.2747     9.3223    -3.2010 H       
  40 H40            6.5838     9.0090    -3.6603 H       
  41 H41            9.2161     5.7398    -2.8304 H       
  42 H42            9.8119     7.4132    -2.7164 H       
  43 H43            8.6615     6.7938    -1.5076 H       
  44 H44            7.3623     7.5295    -5.5171 H       
  45 H45            9.0532     7.8429    -5.0578 H       
  46 H46            8.4574     6.1695    -5.1718 H       
@<TRIPOS>BOND
   1    1    2 ar
   2    1    6 ar
   3    1   24 1
   4    2    3 ar
   5    2   11 1
   6    3    4 ar
   7    3   25 1
   8    4    5 ar
   9    4   26 1
  10    5    6 ar
  11    5    7 1
  12    6   27 1
  13    7    8 1
  14    7   12 1
  15    7   28 1
  16    8    9 1
  17    8   10 1
  18    8   29 1
  19    9   30 1
  20    9   31 1
  21    9   32 1
  22   10   33 1
  23   10   34 1
  24   10   35 1
  25   12   13 am
  26   12   14 2
  27   13   15 1
  28   13   36 1
  29   15   16 2
  30   15   19 1
  31   16   17 1
  32   17   18 2
  33   17   20 1
  34   18   19 1
  35   18   37 1
  36   20   21 1
  37   20   22 1
  38   20   23 1
  39   21   38 1
  40   21   39 1
  41   21   40 1
  42   22   41 1
  43   22   42 1
  44   22   43 1
  45   23   44 1
  46   23   45 1
  47   23   46 1

#	End of record

