#	Name: ASD05430318
#	Creating user name:	WinNT
#	Creation time:	15. 06. 2019 21:00

#	Modifying user name:	WinNT
#	Modification time:	15. 06. 2019 21:00

#	Program:	/corina/corina34_cracker 3.40 0067  02.08.2006

@<TRIPOS>MOLECULE
ASD05430318
  54   58    0    0    0
SMALL
NO_CHARGES


@<TRIPOS>ATOM
   1 N1            -0.0680     2.0219     0.0691 N.pl3   
   2 C2             1.4104     1.8766    -0.0013 C.3     
   3 O3             1.8195     3.0375    -0.7275 O.3     
   4 N4             0.7294     3.9434    -0.6565 N.2     
   5 C5            -0.3261     3.3528    -0.1744 C.2     
   6 C6             2.0543     1.7910     1.3585 C.ar    
   7 C7             3.4062     2.0424     1.5002 C.ar    
   8 C8             1.2919     1.4665     2.4650 C.ar    
   9 C9             1.8826     1.3879     3.7124 C.ar    
  10 C10            3.2357     1.6334     3.8531 C.ar    
  11 C11            3.9968     1.9638     2.7475 C.ar    
  12 C12           -1.6131     4.0139     0.0750 C.2     
  13 C13           -1.7611     5.3234    -0.1980 C.2     
  14 C14           -3.0515     5.9862     0.0521 C.ar    
  15 C15           -4.1249     5.2566     0.5734 C.ar    
  16 C16           -3.2053     7.3478    -0.2254 C.ar    
  17 C17           -4.4188     7.9653     0.0117 C.ar    
  18 C18           -5.4862     7.2303     0.5266 C.ar    
  19 C19           -5.3318     5.8788     0.8073 C.ar    
  20 N20           -6.7159     7.8582     0.7669 N.pl3   
  21 C21           -6.9118     9.0142     1.4526 C.2     
  22 N22           -8.1899     9.2791     1.4640 N.2     
  23 C23           -8.8486     8.3194     0.7978 C.2     
  24 C24           -7.9475     7.4248     0.3492 C.2     
  25 O25           -4.5718     9.2893    -0.2566 O.3     
  26 C26           -3.4365     9.9801    -0.7820 C.3     
  27 C27          -10.3390     8.2559     0.5837 C.3     
  28 C28           -0.5806     0.6713     0.3205 C.3     
  29 C29            0.4405    -0.3101    -0.2945 C.3     
  30 C30            1.5836     0.5885    -0.8318 C.3     
  31 H31            4.0010     2.2999     0.6363 H       
  32 H32            0.2348     1.2748     2.3551 H       
  33 H33            1.2868     1.1352     4.5770 H       
  34 H34            3.6970     1.5724     4.8277 H       
  35 H35            5.0540     2.1555     2.8574 H       
  36 H36           -2.4411     3.4493     0.4776 H       
  37 H37           -0.9331     5.8880    -0.6005 H       
  38 H38           -4.0078     4.2055     0.7923 H       
  39 H39           -2.3776     7.9159    -0.6239 H       
  40 H40           -6.1611     5.3132     1.2057 H       
  41 H41           -6.1396     9.6135     1.9118 H       
  42 H42           -8.1559     6.5333    -0.2238 H       
  43 H43           -2.6127     9.9187    -0.0709 H       
  44 H44           -3.1373     9.5228    -1.7251 H       
  45 H45           -3.6936    11.0258    -0.9507 H       
  46 H46          -10.5959     8.7749    -0.3397 H       
  47 H47          -10.6520     7.2141     0.5140 H       
  48 H48          -10.8471     8.7326     1.4219 H       
  49 H49           -0.6657     0.4980     1.3932 H       
  50 H50           -1.5527     0.5462    -0.1565 H       
  51 H51            0.8196    -0.9901     0.4684 H       
  52 H52           -0.0162    -0.8708    -1.1101 H       
  53 H53            1.4499     0.7916    -1.8943 H       
  54 H54            2.5558     0.1333    -0.6426 H       
@<TRIPOS>BOND
   1    1   28 1
   2    1    2 1
   3    1    5 1
   4    2    3 1
   5    2    6 1
   6    2   30 1
   7    3    4 1
   8    4    5 2
   9    5   12 1
  10    6    7 ar
  11    6    8 ar
  12    7   11 ar
  13    7   31 1
  14    8    9 ar
  15    8   32 1
  16    9   10 ar
  17    9   33 1
  18   10   11 ar
  19   10   34 1
  20   11   35 1
  21   12   13 2
  22   12   36 1
  23   13   14 1
  24   13   37 1
  25   14   15 ar
  26   14   16 ar
  27   15   19 ar
  28   15   38 1
  29   16   17 ar
  30   16   39 1
  31   17   18 ar
  32   17   25 1
  33   18   19 ar
  34   18   20 1
  35   19   40 1
  36   20   21 1
  37   20   24 1
  38   21   22 2
  39   21   41 1
  40   22   23 1
  41   23   24 2
  42   23   27 1
  43   24   42 1
  44   25   26 1
  45   26   43 1
  46   26   44 1
  47   26   45 1
  48   27   46 1
  49   27   47 1
  50   27   48 1
  51   28   29 1
  52   28   49 1
  53   28   50 1
  54   29   30 1
  55   29   51 1
  56   29   52 1
  57   30   53 1
  58   30   54 1

#	End of record

