#	Name: ASD01411594
#	Creating user name:	WinNT
#	Creation time:	15. 06. 2019 19:19

#	Modifying user name:	WinNT
#	Modification time:	15. 06. 2019 19:19

#	Program:	/corina/corina34_cracker 3.40 0067  02.08.2006

@<TRIPOS>MOLECULE
ASD01411594
  51   55    0    0    0
SMALL
NO_CHARGES


@<TRIPOS>ATOM
   1 C1            -0.0159     1.3234     0.0093 C.ar    
   2 N2             0.0021    -0.0041     0.0020 N.ar    
   3 N3            -1.0767    -0.6995     0.0085 N.ar    
   4 C4            -2.2739    -0.1441     0.0229 C.ar    
   5 C5            -2.3990     1.2370     0.0315 C.ar    
   6 C6            -1.2391     1.9974     0.0304 C.ar    
   7 C7            -3.5061    -1.0117     0.0295 C.3     
   8 N8            -3.8489    -1.3833    -1.3455 N.pl3   
   9 C9            -3.3184    -2.5177    -1.8648 C.2     
  10 C10           -4.6797    -0.5906    -2.0390 C.2     
  11 C11           -5.0191    -0.9184    -3.3375 C.2     
  12 C12           -4.4496    -2.1429    -3.9231 C.2     
  13 C13           -3.5888    -2.9237    -3.1251 C.2     
  14 N14           -5.7910    -0.3849    -4.2985 N.2     
  15 C15           -5.7291    -1.1630    -5.3670 C.2     
  16 N16           -4.9343    -2.2125    -5.1568 N.2     
  17 C17           -6.4510    -0.9013    -6.6352 C.ar    
  18 C18           -6.3225    -1.7815    -7.7080 C.ar    
  19 C19           -6.9968    -1.5330    -8.8863 C.ar    
  20 C20           -7.7993    -0.4125    -9.0054 C.ar    
  21 C21           -7.9319     0.4661    -7.9458 C.ar    
  22 C22           -7.2671     0.2250    -6.7579 C.ar    
  23 F23           -7.3967     1.0835    -5.7228 F       
  24 C24            1.2561     2.0866     0.0013 C.ar    
  25 C25            2.4757     1.4129    -0.0140 C.ar    
  26 C26            3.6563     2.1281    -0.0214 C.ar    
  27 C27            3.6301     3.5109    -0.0132 C.ar    
  28 C28            2.4221     4.1850     0.0020 C.ar    
  29 C29            1.2357     3.4802     0.0032 C.ar    
  30 C30            2.5058    -0.0938    -0.0219 C.3     
  31 F31            3.8338    -0.5337    -0.0371 F       
  32 F32            1.8669    -0.5791     1.1242 F       
  33 F33            1.8447    -0.5675    -1.1602 F       
  34 C34            4.9224     4.2862    -0.0203 C.3     
  35 F35            5.3104     4.5336    -1.3414 F       
  36 F36            4.7406     5.5018     0.6478 F       
  37 F37            5.9158     3.5428     0.6260 F       
  38 H38           -3.3714     1.7068     0.0429 H       
  39 H39           -1.2804     3.0766     0.0369 H       
  40 H40           -3.3131    -1.9125     0.6120 H       
  41 H41           -4.3352    -0.4617     0.4747 H       
  42 H42           -2.6592    -3.1152    -1.2526 H       
  43 H43           -5.0826     0.3018    -1.5831 H       
  44 H44           -3.1493    -3.8294    -3.5160 H       
  45 H45           -5.6960    -2.6565    -7.6176 H       
  46 H46           -6.8973    -2.2150    -9.7178 H       
  47 H47           -8.3243    -0.2230    -9.9300 H       
  48 H48           -8.5593     1.3396    -8.0449 H       
  49 H49            4.6022     1.6070    -0.0332 H       
  50 H50            2.4075     5.2648     0.0083 H       
  51 H51            0.2932     4.0074     0.0147 H       
@<TRIPOS>BOND
   1    1    2 ar
   2    1   24 1
   3    1    6 ar
   4    2    3 ar
   5    3    4 ar
   6    4    5 ar
   7    4    7 1
   8    5    6 ar
   9    5   38 1
  10    6   39 1
  11    7    8 1
  12    7   40 1
  13    7   41 1
  14    8    9 1
  15    8   10 1
  16    9   13 2
  17    9   42 1
  18   10   11 2
  19   10   43 1
  20   11   12 1
  21   11   14 1
  22   12   13 1
  23   12   16 2
  24   13   44 1
  25   14   15 2
  26   15   16 1
  27   15   17 1
  28   17   18 ar
  29   17   22 ar
  30   18   19 ar
  31   18   45 1
  32   19   20 ar
  33   19   46 1
  34   20   21 ar
  35   20   47 1
  36   21   22 ar
  37   21   48 1
  38   22   23 1
  39   24   25 ar
  40   24   29 ar
  41   25   26 ar
  42   25   30 1
  43   26   27 ar
  44   26   49 1
  45   27   28 ar
  46   27   34 1
  47   28   29 ar
  48   28   50 1
  49   29   51 1
  50   30   31 1
  51   30   32 1
  52   30   33 1
  53   34   35 1
  54   34   36 1
  55   34   37 1

#	End of record

