#	Name: ASD03090452
#	Creating user name:	WinNT
#	Creation time:	15. 06. 2019 20:28

#	Modifying user name:	WinNT
#	Modification time:	15. 06. 2019 20:28

#	Program:	/corina/corina34_cracker 3.40 0067  02.08.2006

@<TRIPOS>MOLECULE
ASD03090452
  45   47    0    0    0
SMALL
NO_CHARGES


@<TRIPOS>ATOM
   1 C1            -0.0179     1.4718     0.0101 C.2     
   2 C2             0.0021    -0.0041     0.0020 C.ar    
   3 C3             1.2205    -0.6880    -0.0133 C.ar    
   4 C4             1.2349    -2.0650    -0.0209 C.ar    
   5 C5             0.0396    -2.7744    -0.0138 C.ar    
   6 C6            -1.1744    -2.0978     0.0010 C.ar    
   7 C7            -1.1973    -0.7210     0.0154 C.ar    
   8 O8             1.0266     2.0940     0.0035 O.2     
   9 N9            -1.1942     2.1298     0.0193 N.am    
  10 O10            0.0580    -4.1314    -0.0217 O.3     
  11 C11           -1.2062    -4.7974    -0.0137 C.3     
  12 C12           -0.9852    -6.3113    -0.0245 C.3     
  13 C13           -2.3389    -7.0244    -0.0159 C.3     
  14 C14           -1.2140     3.5946     0.0273 C.3     
  15 N15           -5.4560     5.0405    -2.2353 N.pl3   
  16 C16           -6.7672     5.4831    -1.7535 C.3     
  17 C17           -6.6673     5.4428    -0.2198 C.3     
  18 C18           -5.2597     4.9643     0.0565 C.ar    
  19 C19           -4.5979     4.7349     1.2475 C.ar    
  20 C20           -3.2886     4.2919     1.2401 C.ar    
  21 C21           -2.6415     4.0776     0.0367 C.ar    
  22 C22           -3.2975     4.3046    -1.1540 C.ar    
  23 C23           -4.6204     4.7527    -1.1549 C.ar    
  24 H24            2.1496    -0.1375    -0.0195 H       
  25 H25            2.1762    -2.5943    -0.0327 H       
  26 H26           -2.1010    -2.6526     0.0061 H       
  27 H27           -2.1409    -0.1960     0.0317 H       
  28 H28           -2.0275     1.6334     0.0205 H       
  29 H29           -1.7588    -4.5172     0.8831 H       
  30 H30           -1.7754    -4.5070    -0.8968 H       
  31 H31           -0.4326    -6.5915    -0.9213 H       
  32 H32           -0.4160    -6.6017     0.8586 H       
  33 H33           -2.8915    -6.7442     0.8809 H       
  34 H34           -2.9081    -6.7340    -0.8990 H       
  35 H35           -2.1814    -8.1029    -0.0236 H       
  36 H36           -0.7010     3.9600     0.9169 H       
  37 H37           -0.7094     3.9697    -0.8630 H       
  38 H38           -5.2064     4.9560    -3.1688 H       
  39 H39           -6.9716     6.4987    -2.0926 H       
  40 H40           -7.5462     4.8039    -2.0998 H       
  41 H41           -6.8195     6.4382     0.1975 H       
  42 H42           -7.3946     4.7421     0.1904 H       
  43 H43           -5.1046     4.9028     2.1864 H       
  44 H44           -2.7721     4.1136     2.1717 H       
  45 H45           -2.7864     4.1356    -2.0902 H       
@<TRIPOS>BOND
   1    1    2 1
   2    1    8 2
   3    1    9 am
   4    2    3 ar
   5    2    7 ar
   6    3    4 ar
   7    3   24 1
   8    4    5 ar
   9    4   25 1
  10    5    6 ar
  11    5   10 1
  12    6    7 ar
  13    6   26 1
  14    7   27 1
  15    9   14 1
  16    9   28 1
  17   10   11 1
  18   11   12 1
  19   11   29 1
  20   11   30 1
  21   12   13 1
  22   12   31 1
  23   12   32 1
  24   13   33 1
  25   13   34 1
  26   13   35 1
  27   14   21 1
  28   14   36 1
  29   14   37 1
  30   15   16 1
  31   15   23 1
  32   15   38 1
  33   16   17 1
  34   16   39 1
  35   16   40 1
  36   17   18 1
  37   17   41 1
  38   17   42 1
  39   18   19 ar
  40   18   23 ar
  41   19   20 ar
  42   19   43 1
  43   20   21 ar
  44   20   44 1
  45   21   22 ar
  46   22   23 ar
  47   22   45 1

#	End of record

