#	Name: ASD02560277
#	Creating user name:	WinNT
#	Creation time:	15. 06. 2019 20:25

#	Modifying user name:	WinNT
#	Modification time:	15. 06. 2019 20:25

#	Program:	/corina/corina34_cracker 3.40 0067  02.08.2006

@<TRIPOS>MOLECULE
ASD02560277
  33   35    0    0    0
SMALL
NO_CHARGES


@<TRIPOS>ATOM
   1 C1             0.0100     1.3172     0.2655 C.2     
   2 O2             0.0166    -0.0242     0.1404 O.3     
   3 C3            -1.2732    -0.4086     0.1235 C.2     
   4 N4            -2.0032     0.6743     0.2350 N.2     
   5 N5            -1.2318     1.7000     0.3250 N.2     
   6 N6            -1.7414    -1.7055     0.0091 N.pl3   
   7 C7             1.2214     2.2113     0.3310 C.3     
   8 C8             1.6459     2.3775     1.7674 C.ar    
   9 C9             2.5531     1.4960     2.3273 C.ar    
  10 C10            2.9428     1.6495     3.6460 C.ar    
  11 C11            2.4258     2.6833     4.4039 C.ar    
  12 C12            1.5189     3.5642     3.8451 C.ar    
  13 C13            1.1328     3.4151     2.5249 C.ar    
  14 C14           -3.1096    -1.9676     0.1263 C.ar    
  15 C15           -3.6723    -3.0424    -0.5530 C.ar    
  16 C16           -5.0242    -3.3062    -0.4401 C.ar    
  17 C17           -5.8253    -2.5046     0.3477 C.ar    
  18 C18           -5.2703    -1.4226     1.0342 C.ar    
  19 C19           -3.9043    -1.1594     0.9244 C.ar    
  20 Cl20           3.2021     0.1972     1.3757 Cl      
  21 Cl21          -0.0057     4.5219     1.8231 Cl      
  22 C22           -6.0992    -0.5889     1.8519 C.1     
  23 N23           -6.7567     0.0724     2.5005 N.1     
  24 H24           -1.1203    -2.4329    -0.1524 H       
  25 H25            2.0352     1.7628    -0.2388 H       
  26 H26            0.9767     3.1861    -0.0907 H       
  27 H27            3.6508     0.9611     4.0833 H       
  28 H28            2.7303     2.8027     5.4332 H       
  29 H29            1.1147     4.3713     4.4380 H       
  30 H30           -3.0507    -3.6732    -1.1712 H       
  31 H31           -5.4554    -4.1423    -0.9705 H       
  32 H32           -6.8814    -2.7139     0.4329 H       
  33 H33           -3.4693    -0.3240     1.4529 H       
@<TRIPOS>BOND
   1    1    2 1
   2    1    7 1
   3    1    5 2
   4    2    3 1
   5    3    4 2
   6    3    6 1
   7    4    5 1
   8    6   14 1
   9    6   24 1
  10    7    8 1
  11    7   25 1
  12    7   26 1
  13    8    9 ar
  14    8   13 ar
  15    9   10 ar
  16    9   20 1
  17   10   11 ar
  18   10   27 1
  19   11   12 ar
  20   11   28 1
  21   12   13 ar
  22   12   29 1
  23   13   21 1
  24   14   15 ar
  25   14   19 ar
  26   15   16 ar
  27   15   30 1
  28   16   17 ar
  29   16   31 1
  30   17   18 ar
  31   17   32 1
  32   18   19 ar
  33   18   22 1
  34   19   33 1
  35   22   23 3

#	End of record

