#	Name: ASD01913131
#	Creating user name:	WinNT
#	Creation time:	15. 06. 2019 20:01

#	Modifying user name:	WinNT
#	Modification time:	15. 06. 2019 20:01

#	Program:	/corina/corina34_cracker 3.40 0067  02.08.2006

@<TRIPOS>MOLECULE
ASD01913131
  45   48    0    0    0
SMALL
NO_CHARGES


@<TRIPOS>ATOM
   1 C1            -0.9465     1.7134    -0.1977 C.ar    
   2 C2            -0.7653     0.2405    -0.1964 C.2     
   3 N3            -1.7461    -0.6869    -0.1235 N.2     
   4 C4            -1.2036    -1.8694    -0.1491 C.2     
   5 O5             0.1267    -1.7390    -0.2383 O.3     
   6 C6             0.4137    -0.4232    -0.2742 C.2     
   7 C7            -1.9518    -3.1761    -0.0875 C.3     
   8 C8            -1.6644    -3.9895    -1.3516 C.3     
   9 C9            -2.4495    -5.3023    -1.3051 C.3     
  10 C10           -1.9979    -6.1200    -0.0909 C.3     
  11 N11           -2.1354    -5.2916     1.1148 N.am    
  12 C12           -1.4946    -3.9697     1.1405 C.3     
  13 C13           -2.8360    -5.7359     2.1769 C.2     
  14 C14           -2.8580    -4.9501     3.4292 C.ar    
  15 O15           -3.4498    -6.7826     2.1054 O.2     
  16 C16            0.1634     2.5551    -0.2784 C.ar    
  17 C17           -0.0115     3.9263    -0.2791 C.ar    
  18 C18           -1.2854     4.4634    -0.1995 C.ar    
  19 C19           -2.3897     3.6303    -0.1188 C.ar    
  20 C20           -2.2259     2.2602    -0.1241 C.ar    
  21 C21           -4.0482    -4.8021     4.1426 C.ar    
  22 C22           -4.0633    -4.0677     5.3107 C.ar    
  23 C23           -1.7149    -3.6252     5.0764 C.ar    
  24 C24           -1.6872    -4.3582     3.9055 C.ar    
  25 F25            1.4062     2.0311    -0.3552 F       
  26 F26           -1.4521     5.8041    -0.2000 F       
  27 C27           -2.9023    -3.4776     5.7759 C.ar    
  28 F28           -0.5831    -3.0515     5.5401 F       
  29 H29            1.3967     0.0186    -0.3448 H       
  30 H30           -3.0217    -2.9798    -0.0167 H       
  31 H31           -1.9662    -3.4167    -2.2284 H       
  32 H32           -0.5977    -4.2061    -1.4092 H       
  33 H33           -3.5147    -5.0864    -1.2225 H       
  34 H34           -2.2625    -5.8705    -2.2163 H       
  35 H35           -2.6216    -7.0089     0.0035 H       
  36 H36           -0.9557    -6.4139    -0.2154 H       
  37 H37           -0.4113    -4.0882     1.1164 H       
  38 H38           -1.7862    -3.4399     2.0473 H       
  39 H39            0.8464     4.5794    -0.3416 H       
  40 H40           -3.3811     4.0542    -0.0565 H       
  41 H41           -3.0878     1.6124    -0.0614 H       
  42 H42           -4.9562    -5.2614     3.7807 H       
  43 H43           -4.9844    -3.9530     5.8629 H       
  44 H44           -0.7620    -4.4728     3.3603 H       
  45 H45           -2.9199    -2.9033     6.6904 H       
@<TRIPOS>BOND
   1    1    2 1
   2    1   16 ar
   3    1   20 ar
   4    2    3 1
   5    2    6 2
   6    3    4 2
   7    4    5 1
   8    4    7 1
   9    5    6 1
  10    6   29 1
  11    7    8 1
  12    7   12 1
  13    7   30 1
  14    8    9 1
  15    8   31 1
  16    8   32 1
  17    9   10 1
  18    9   33 1
  19    9   34 1
  20   10   11 1
  21   10   35 1
  22   10   36 1
  23   11   12 1
  24   11   13 am
  25   12   37 1
  26   12   38 1
  27   13   14 1
  28   13   15 2
  29   14   21 ar
  30   14   24 ar
  31   16   17 ar
  32   16   25 1
  33   17   18 ar
  34   17   39 1
  35   18   19 ar
  36   18   26 1
  37   19   20 ar
  38   19   40 1
  39   20   41 1
  40   21   22 ar
  41   21   42 1
  42   22   27 ar
  43   22   43 1
  44   23   24 ar
  45   23   28 1
  46   23   27 ar
  47   24   44 1
  48   27   45 1

#	End of record

