#	Name: ASD03731875
#	Creating user name:	WinNT
#	Creation time:	15. 06. 2019 20:46

#	Modifying user name:	WinNT
#	Modification time:	15. 06. 2019 20:46

#	Program:	/corina/corina34_cracker 3.40 0067  02.08.2006

@<TRIPOS>MOLECULE
ASD03731875
  34   36    0    0    0
SMALL
NO_CHARGES


@<TRIPOS>ATOM
   1 C1             0.1839     0.0187    -0.7681 C.1     
   2 C2             0.1325     1.4442    -0.6425 C.ar    
   3 C3             0.2261     2.2535    -1.7814 C.ar    
   4 C4             0.1756     3.6269    -1.6546 C.ar    
   5 C5             0.0322     4.2053    -0.4002 C.ar    
   6 C6            -0.0612     3.4044     0.7336 C.ar    
   7 C7            -0.0171     2.0323     0.6169 C.ar    
   8 N8             0.2246    -1.1122    -0.8677 N.1     
   9 F9             0.3661     1.6911    -3.0017 F       
  10 O10           -0.0167     5.5566    -0.2799 O.3     
  11 C11            1.1428     6.2164    -0.0240 C.ar    
  12 C12            1.1555     7.6149     0.0420 C.ar    
  13 C13            2.3507     8.2827     0.3056 C.ar    
  14 C14            3.5133     7.5629     0.4999 C.ar    
  15 C15            3.4963     6.1799     0.4338 C.ar    
  16 C16            2.3157     5.5077     0.1782 C.ar    
  17 N17           -0.2491     9.4644    -0.9785 N.pl3   
  18 N18           -1.5836     9.8792    -0.8833 N.2     
  19 C19           -2.2081     9.0832    -0.0529 C.2     
  20 C20           -1.3033     8.1304     0.4156 C.2     
  21 C21           -0.0928     8.3801    -0.1675 C.2     
  22 C22            0.7905    10.0814    -1.8059 C.3     
  23 Cl23           5.0012     8.3950     0.8276 Cl      
  24 Cl24          -0.2397     4.1353     2.2981 Cl      
  25 H25            0.2480     4.2526    -2.5319 H       
  26 H26           -0.0942     1.4120     1.4976 H       
  27 H27            2.3674     9.3613     0.3575 H       
  28 H28            4.4093     5.6234     0.5864 H       
  29 H29            2.3086     4.4287     0.1324 H       
  30 H30           -3.2498     9.1527     0.2236 H       
  31 H31           -1.5206     7.3369     1.1153 H       
  32 H32            1.3584    10.7923    -1.2057 H       
  33 H33            1.4600     9.3089    -2.1842 H       
  34 H34            0.3266    10.6022    -2.6436 H       
@<TRIPOS>BOND
   1    1    2 1
   2    1    8 3
   3    2    3 ar
   4    2    7 ar
   5    3    4 ar
   6    3    9 1
   7    4    5 ar
   8    4   25 1
   9    5    6 ar
  10    5   10 1
  11    6    7 ar
  12    6   24 1
  13    7   26 1
  14   10   11 1
  15   11   12 ar
  16   11   16 ar
  17   12   13 ar
  18   12   21 1
  19   13   14 ar
  20   13   27 1
  21   14   15 ar
  22   14   23 1
  23   15   16 ar
  24   15   28 1
  25   16   29 1
  26   17   18 1
  27   17   21 1
  28   17   22 1
  29   18   19 2
  30   19   20 1
  31   19   30 1
  32   20   21 2
  33   20   31 1
  34   22   32 1
  35   22   33 1
  36   22   34 1

#	End of record

