#	Name: ASD02120010
#	Creating user name:	WinNT
#	Creation time:	15. 06. 2019 20:18

#	Modifying user name:	WinNT
#	Modification time:	15. 06. 2019 20:18

#	Program:	/corina/corina34_cracker 3.40 0067  02.08.2006

@<TRIPOS>MOLECULE
ASD02120010
 230  235    0    0    0
SMALL
NO_CHARGES


@<TRIPOS>ATOM
   1 C1             0.1401     3.2657    -4.5012 C.3     
   2 C2            -0.9379     2.2176    -4.3991 C.2     
   3 C3             1.4168     2.7504    -3.8337 C.3     
   4 C4             0.4207     3.5669    -5.9748 C.3     
   5 C5             2.1829     3.9256    -3.2232 C.3     
   6 C6             3.6558     3.5447    -3.0600 C.3     
   7 C7             3.8383     2.0612    -3.3869 C.3     
   8 C8             5.0580     1.5204    -2.6383 C.3     
   9 C9             5.5743     0.2648    -3.3436 C.3     
  10 C10            6.9196    -0.1118    -2.7786 C.2     
  11 C11            7.4961    -1.2289    -3.1479 C.2     
  12 C12            6.8140    -2.1375    -4.1379 C.3     
  13 O13           -0.8185     1.2836    -3.6347 O.2     
  14 C14           -4.2887    -4.9681    -8.4611 C.3     
  15 C15           -3.3436    -5.7388    -9.3462 C.2     
  16 O16           -3.1344    -5.3755   -10.4843 O.2     
  17 N17            6.9052    -6.1213    -6.8395 N.3     
  18 C18            7.0414    -5.5468    -5.4944 C.3     
  19 C19            8.1207    -6.2811    -4.7415 C.2     
  20 O20            8.8318    -5.6820    -3.9627 O.2     
  21 C21            7.4144    -4.0672    -5.6070 C.3     
  22 C22            5.7144    -5.6826    -4.7451 C.3     
  23 C23            7.5621    -3.4704    -4.2058 C.3     
  24 C24           -4.0037    -5.2994    -6.9948 C.3     
  25 C25           -2.5488    -5.0446    -6.6959 C.2     
  26 C26           -1.5036    -5.7503    -7.1560 C.2     
  27 N27           -0.3367    -5.2245    -6.6722 N.pl3   
  28 C28           -0.6094    -4.1403    -5.8687 C.ar    
  29 C29           -2.0064    -3.9761    -5.8533 C.ar    
  30 C30            0.1882    -3.2607    -5.1435 C.ar    
  31 C31           -0.3968    -2.2472    -4.4168 C.ar    
  32 C32           -1.7764    -2.0933    -4.3999 C.ar    
  33 C33           -2.5781    -2.9411    -5.1106 C.ar    
  34 C34           -5.4663     5.9912     5.9851 C.2     
  35 C35           -6.3854     5.2122     6.8904 C.3     
  36 O36           -4.2802     6.0506     6.2308 O.2     
  37 C37           -1.3064    -6.5970   -10.8397 C.3     
  38 C38           -1.8162    -7.5619    -9.7673 C.3     
  39 C39           -0.6511    -8.0976    -8.9755 C.2     
  40 N40           -2.7282    -6.8474    -8.8530 N.am    
  41 O41           -0.7730    -8.3555    -7.7967 O.2     
  42 C42            1.1679    -8.9327    -7.3188 C.3     
  43 C43            1.6388    -8.8212    -8.7703 C.3     
  44 C44            2.8137    -7.8775    -8.8527 C.2     
  45 N45            0.5429    -8.2878    -9.6075 N.am    
  46 O46            2.7439    -6.8840    -9.5361 O.2     
  47 C47            2.3220    -9.4279    -6.4449 C.3     
  48 C48            1.8330    -9.6292    -5.0337 C.2     
  49 O49            0.6754    -9.3992    -4.7545 O.2     
  50 N50            2.6820   -10.0648    -4.0820 N.am    
  51 C51            4.7364    -5.8333    -8.5587 C.3     
  52 C52            5.2288    -7.2284    -8.1687 C.3     
  53 C53            4.0560    -8.1716    -8.0911 C.2     
  54 N54            5.8935    -7.1652    -6.8601 N.3     
  55 O55            4.1247    -9.1656    -7.4083 O.2     
  56 C56            3.4729    -5.4978    -7.7639 C.3     
  57 C57            3.8521    -5.1664    -6.3191 C.3     
  58 C58            2.7767    -4.2919    -8.3979 C.3     
  59 C59           10.6723    -8.1816    -4.9508 C.3     
  60 C60            9.3452    -8.3173    -4.2016 C.3     
  61 C61            8.9778    -9.7746    -4.0905 C.2     
  62 N62            8.2959    -7.6035    -4.9335 N.am    
  63 O63            7.9414   -10.1773    -4.5751 O.2     
  64 O64           10.5758    -8.8428    -6.2140 O.3     
  65 N65            9.8007   -10.6304    -3.4527 N.am    
  66 C66           -4.3910     8.4941     4.8209 C.3     
  67 C67           -5.0691     7.3792     4.0222 C.3     
  68 C68           -4.0200     6.4566     3.4572 C.2     
  69 N69           -5.9625     6.6219     4.9023 N.am    
  70 O70           -3.7794     5.4028     4.0072 O.2     
  71 C71           -5.4450     9.4993     5.2895 C.3     
  72 C72           -4.7868    10.5452     6.1916 C.3     
  73 C73           -6.0654    10.1917     4.0743 C.3     
  74 C74           -0.9947     6.1590     2.4953 C.3     
  75 C75           -2.3293     5.9056     1.7913 C.3     
  76 C76           -2.1754     6.1643     0.3147 C.2     
  77 N77           -3.3491     6.8025     2.3406 N.am    
  78 O78           -2.8511     7.0142    -0.2257 O.2     
  79 C79           -1.1509     5.8963     3.9944 C.3     
  80 O80            0.0001     5.2842     1.9595 O.3     
  81 C81           -0.1611     6.8610    -2.0568 C.3     
  82 C82           -1.1373     5.7028    -1.8409 C.3     
  83 C83           -0.6048     4.4647    -2.5150 C.2     
  84 N84           -1.2869     5.4513    -0.4054 N.am    
  85 O85           -0.4476     3.4461    -1.8757 O.2     
  86 C86           -0.7286     8.1166    -1.4464 C.ar    
  87 C87           -0.4503     8.4318    -0.1296 C.ar    
  88 C88           -0.9708     9.5835     0.4303 C.ar    
  89 C89           -1.7692    10.4203    -0.3269 C.ar    
  90 C90           -2.0468    10.1055    -1.6440 C.ar    
  91 C91           -1.5227     8.9560    -2.2051 C.ar    
  92 N92           -0.3031     4.4893    -3.8284 N.am    
  93 C93           -4.3795     1.8729    -4.5428 C.3     
  94 C94           -3.0612     1.2674    -5.0288 C.3     
  95 C95           -3.2714     0.6071    -6.3671 C.2     
  96 N96           -2.0503     2.3363    -5.1798 N.am    
  97 O97           -2.9586     1.1784    -7.3902 O.2     
  98 C98           -4.1981     2.4192    -3.1501 C.2     
  99 N99           -3.9443     3.7208    -2.8108 N.pl3   
 100 C100          -3.8548     3.7725    -1.4643 C.2     
 101 N101          -4.0417     2.5727    -0.9862 N.2     
 102 C102          -4.2603     1.7218    -1.9998 C.2     
 103 C103          -2.7607    -0.9734    -8.6042 C.3     
 104 C104          -4.0020    -1.2353    -7.7490 C.3     
 105 C105          -4.2048    -2.7208    -7.5948 C.2     
 106 N106          -3.8164    -0.6387    -6.4120 N.am    
 107 O107          -4.4720    -3.1965    -6.5117 O.2     
 108 C108          -3.0363    -1.3823   -10.0283 C.ar    
 109 C109          -4.0003    -0.7171   -10.7630 C.ar    
 110 C110          -4.2548    -1.0899   -12.0686 C.ar    
 111 C111          -3.5422    -2.1328   -12.6424 C.ar    
 112 C112          -2.5754    -2.7987   -11.9030 C.ar    
 113 C113          -2.3207    -2.4183   -10.5996 C.ar    
 114 O114          -3.7910    -2.5018   -13.9265 O.3     
 115 N115          -4.0828    -3.5219    -8.6919 N.am    
 116 H116           1.1555     2.0402    -3.0493 H       
 117 H117           2.0418     2.2564    -4.5777 H       
 118 H118          -0.5072     3.8522    -6.4704 H       
 119 H119           1.1381     4.3842    -6.0483 H       
 120 H120           0.8312     2.6788    -6.4553 H       
 121 H121           2.1022     4.7921    -3.8796 H       
 122 H122           1.7600     4.1677    -2.2482 H       
 123 H123           4.2633     4.1436    -3.7385 H       
 124 H124           3.9676     3.7313    -2.0323 H       
 125 H125           2.9496     1.5095    -3.0800 H       
 126 H126           3.9879     1.9413    -4.4599 H       
 127 H127           5.8416     2.2780    -2.6253 H       
 128 H128           4.7758     1.2723    -1.6151 H       
 129 H129           4.8724    -0.5543    -3.1872 H       
 130 H130           5.6709     0.4616    -4.4113 H       
 131 H131           7.4090     0.5394    -2.0692 H       
 132 H132           8.4605    -1.4986    -2.7431 H       
 133 H133           5.7860    -2.3135    -3.8212 H       
 134 H134           6.8159    -1.6691    -5.1221 H       
 135 H135          -5.3172    -5.2344    -8.7051 H       
 136 H136           6.6995    -5.4049    -7.5196 H       
 137 H137           8.3577    -3.9702    -6.1445 H       
 138 H138           6.6317    -3.5353    -6.1478 H       
 139 H139           5.2933    -6.6712    -4.9281 H       
 140 H140           5.8855    -5.5527    -3.6765 H       
 141 H141           5.0188    -4.9206    -5.0969 H       
 142 H142           8.6178    -3.3060    -3.9904 H       
 143 H143           7.1444    -4.1593    -3.4716 H       
 144 H144          -4.6218    -4.6710    -6.3536 H       
 145 H145          -4.2349    -6.3480    -6.8076 H       
 146 H146          -1.5735    -6.6065    -7.8105 H       
 147 H147           0.5506    -5.5652    -6.8662 H       
 148 H148           1.2624    -3.3724    -5.1501 H       
 149 H149           0.2241    -1.5657    -3.8543 H       
 150 H150          -2.2192    -1.2936    -3.8246 H       
 151 H151          -3.6506    -2.8152    -5.0928 H       
 152 H152          -5.8082     4.7758     7.7056 H       
 153 H153          -7.1442     5.8795     7.2990 H       
 154 H154          -6.8684     4.4179     6.3213 H       
 155 H155          -0.3809    -6.9838   -11.2661 H       
 156 H156          -2.0553    -6.4987   -11.6256 H       
 157 H157          -1.1199    -5.6211   -10.3914 H       
 158 H158          -2.3474    -8.3871   -10.2415 H       
 159 H159          -2.8810    -7.1530    -7.9452 H       
 160 H160           0.8397    -7.9545    -6.9672 H       
 161 H161           0.3385    -9.6374    -7.2590 H       
 162 H162           1.9341    -9.8041    -9.1375 H       
 163 H163           0.6653    -8.0858   -10.5483 H       
 164 H164           2.6958   -10.3733    -6.8382 H       
 165 H165           3.1241    -8.6898    -6.4497 H       
 166 H166           3.6078   -10.2488    -4.3053 H       
 167 H167           2.3672   -10.1944    -3.1736 H       
 168 H168           5.5110    -5.0994    -8.3364 H       
 169 H169           4.5113    -5.8124    -9.6249 H       
 170 H170           5.9347    -7.5872    -8.9178 H       
 171 H171           6.2910    -8.0590    -6.6128 H       
 172 H172           2.7984    -6.3540    -7.7752 H       
 173 H173           2.9580    -4.8793    -5.7655 H       
 174 H174           4.3032    -6.0418    -5.8520 H       
 175 H175           4.5650    -4.3420    -6.3106 H       
 176 H176           2.5066    -4.5280    -9.4271 H       
 177 H177           1.8765    -4.0528    -7.8317 H       
 178 H178           3.4511    -3.4356    -8.3865 H       
 179 H179          10.8939    -7.1262    -5.1091 H       
 180 H180          11.4696    -8.6361    -4.3628 H       
 181 H181           9.4463    -7.8910    -3.2035 H       
 182 H182           7.7273    -8.0827    -5.5563 H       
 183 H183          11.3830    -8.7972    -6.7445 H       
 184 H184          10.6296   -10.3083    -3.0652 H       
 185 H185           9.5642   -11.5684    -3.3813 H       
 186 H186          -3.8871     8.0656     5.6872 H       
 187 H187          -3.6610     9.0009     4.1898 H       
 188 H188          -5.6463     7.8156     3.2070 H       
 189 H189          -6.9112     6.5744     4.7057 H       
 190 H190          -6.2229     8.9770     5.8465 H       
 191 H191          -4.0090    11.0675     5.6347 H       
 192 H192          -5.5377    11.2613     6.5255 H       
 193 H193          -4.3449    10.0519     7.0573 H       
 194 H194          -5.2875    10.7140     3.5174 H       
 195 H195          -6.5343     9.4465     3.4317 H       
 196 H196          -6.8163    10.9077     4.4082 H       
 197 H197          -0.6914     7.1940     2.3374 H       
 198 H198          -2.6325     4.8706     1.9492 H       
 199 H199          -3.5416     7.6453     1.9006 H       
 200 H200          -1.4542     4.8613     4.1523 H       
 201 H201          -0.2001     6.0769     4.4959 H       
 202 H202          -1.9097     6.5637     4.4031 H       
 203 H203          -0.2042     4.3449     2.0648 H       
 204 H204           0.7921     6.6256    -1.5835 H       
 205 H205          -0.0085     7.0132    -3.1252 H       
 206 H206          -2.1067     5.9604    -2.2676 H       
 207 H207          -0.7465     4.7715     0.0267 H       
 208 H208           0.1735     7.7781     0.4620 H       
 209 H209          -0.7540     9.8294     1.4593 H       
 210 H210          -2.1765    11.3198     0.1108 H       
 211 H211          -2.6708    10.7591    -2.2354 H       
 212 H212          -1.7365     8.7120    -3.2352 H       
 213 H213          -0.3794     5.3171    -4.3281 H       
 214 H214          -4.6781     2.6789    -5.2132 H       
 215 H215          -5.1513     1.1033    -4.5335 H       
 216 H216          -2.7091     0.5307    -4.3067 H       
 217 H217          -2.1709     3.0762    -5.7954 H       
 218 H218          -3.8468     4.4668    -3.4232 H       
 219 H219          -3.6605     4.6597    -0.8800 H       
 220 H220          -4.4503     0.6625    -1.9093 H       
 221 H221          -2.5147     0.0880    -8.5720 H       
 222 H222          -1.9230    -1.5525    -8.2156 H       
 223 H223          -4.8756    -0.7933    -8.2282 H       
 224 H224          -4.0710    -1.1117    -5.6043 H       
 225 H225          -4.5550     0.0945   -10.3158 H       
 226 H226          -5.0081    -0.5703   -12.6420 H       
 227 H227          -2.0193    -3.6108   -12.3475 H       
 228 H228          -1.5652    -2.9334   -10.0250 H       
 229 H229          -3.2527    -2.0360   -14.5809 H       
 230 H230          -3.8735    -3.1652    -9.5694 H       
@<TRIPOS>BOND
   1    1    2 1
   2    1    3 1
   3    1    4 1
   4    1   92 1
   5    2   13 2
   6    2   96 am
   7    3    5 1
   8    3  116 1
   9    3  117 1
  10    4  118 1
  11    4  119 1
  12    4  120 1
  13    5    6 1
  14    5  121 1
  15    5  122 1
  16    6    7 1
  17    6  123 1
  18    6  124 1
  19    7    8 1
  20    7  125 1
  21    7  126 1
  22    8    9 1
  23    8  127 1
  24    8  128 1
  25    9   10 1
  26    9  129 1
  27    9  130 1
  28   10   11 2
  29   10  131 1
  30   11   12 1
  31   11  132 1
  32   12   23 1
  33   12  133 1
  34   12  134 1
  35   14   15 1
  36   14   24 1
  37   14  115 1
  38   14  135 1
  39   15   16 2
  40   15   40 am
  41   17   18 1
  42   17   54 1
  43   17  136 1
  44   18   19 1
  45   18   21 1
  46   18   22 1
  47   19   20 2
  48   19   62 am
  49   21   23 1
  50   21  137 1
  51   21  138 1
  52   22  139 1
  53   22  140 1
  54   22  141 1
  55   23  142 1
  56   23  143 1
  57   24   25 1
  58   24  144 1
  59   24  145 1
  60   25   26 2
  61   25   29 1
  62   26   27 1
  63   26  146 1
  64   27   28 1
  65   27  147 1
  66   28   29 ar
  67   28   30 ar
  68   29   33 ar
  69   30   31 ar
  70   30  148 1
  71   31   32 ar
  72   31  149 1
  73   32   33 ar
  74   32  150 1
  75   33  151 1
  76   34   36 2
  77   34   69 am
  78   34   35 1
  79   35  152 1
  80   35  153 1
  81   35  154 1
  82   37   38 1
  83   37  155 1
  84   37  156 1
  85   37  157 1
  86   38   39 1
  87   38   40 1
  88   38  158 1
  89   39   41 2
  90   39   45 am
  91   40  159 1
  92   42   47 1
  93   42   43 1
  94   42  160 1
  95   42  161 1
  96   43   45 1
  97   43   44 1
  98   43  162 1
  99   44   46 2
 100   44   53 1
 101   45  163 1
 102   47   48 1
 103   47  164 1
 104   47  165 1
 105   48   49 2
 106   48   50 am
 107   50  166 1
 108   50  167 1
 109   51   56 1
 110   51   52 1
 111   51  168 1
 112   51  169 1
 113   52   54 1
 114   52   53 1
 115   52  170 1
 116   53   55 2
 117   54  171 1
 118   56   57 1
 119   56   58 1
 120   56  172 1
 121   57  173 1
 122   57  174 1
 123   57  175 1
 124   58  176 1
 125   58  177 1
 126   58  178 1
 127   59   64 1
 128   59   60 1
 129   59  179 1
 130   59  180 1
 131   60   62 1
 132   60   61 1
 133   60  181 1
 134   61   63 2
 135   61   65 am
 136   62  182 1
 137   64  183 1
 138   65  184 1
 139   65  185 1
 140   66   71 1
 141   66   67 1
 142   66  186 1
 143   66  187 1
 144   67   69 1
 145   67   68 1
 146   67  188 1
 147   68   70 2
 148   68   77 am
 149   69  189 1
 150   71   72 1
 151   71   73 1
 152   71  190 1
 153   72  191 1
 154   72  192 1
 155   72  193 1
 156   73  194 1
 157   73  195 1
 158   73  196 1
 159   74   75 1
 160   74   79 1
 161   74   80 1
 162   74  197 1
 163   75   77 1
 164   75   76 1
 165   75  198 1
 166   76   78 2
 167   76   84 am
 168   77  199 1
 169   79  200 1
 170   79  201 1
 171   79  202 1
 172   80  203 1
 173   81   86 1
 174   81   82 1
 175   81  204 1
 176   81  205 1
 177   82   83 1
 178   82   84 1
 179   82  206 1
 180   83   85 2
 181   83   92 am
 182   84  207 1
 183   86   87 ar
 184   86   91 ar
 185   87   88 ar
 186   87  208 1
 187   88   89 ar
 188   88  209 1
 189   89   90 ar
 190   89  210 1
 191   90   91 ar
 192   90  211 1
 193   91  212 1
 194   92  213 1
 195   93   98 1
 196   93   94 1
 197   93  214 1
 198   93  215 1
 199   94   95 1
 200   94   96 1
 201   94  216 1
 202   95   97 2
 203   95  106 am
 204   96  217 1
 205   98   99 1
 206   98  102 2
 207   99  100 1
 208   99  218 1
 209  100  101 2
 210  100  219 1
 211  101  102 1
 212  102  220 1
 213  103  108 1
 214  103  104 1
 215  103  221 1
 216  103  222 1
 217  104  105 1
 218  104  106 1
 219  104  223 1
 220  105  107 2
 221  105  115 am
 222  106  224 1
 223  108  109 ar
 224  108  113 ar
 225  109  110 ar
 226  109  225 1
 227  110  111 ar
 228  110  226 1
 229  111  112 ar
 230  111  114 1
 231  112  113 ar
 232  112  227 1
 233  113  228 1
 234  114  229 1
 235  115  230 1

#	End of record

