#	Name: ASD04800004
#	Creating user name:	WinNT
#	Creation time:	15. 06. 2019 20:52

#	Modifying user name:	WinNT
#	Modification time:	15. 06. 2019 20:52

#	Program:	/corina/corina34_cracker 3.40 0067  02.08.2006

@<TRIPOS>MOLECULE
ASD04800004
  30   31    0    0    0
SMALL
NO_CHARGES


@<TRIPOS>ATOM
   1 C1            -0.0089     1.3668     0.0445 C.ar    
   2 C2            -0.0770     0.1233    -0.5585 C.ar    
   3 C3             1.0384    -0.4154    -1.1752 C.ar    
   4 C4             2.2267     0.2851    -1.1924 C.ar    
   5 C5             2.3022     1.5402    -0.5859 C.ar    
   6 C6             1.1732     2.0778     0.0345 C.ar    
   7 C7             3.5722     2.2962    -0.6000 C.2     
   8 N8             3.6419     3.5077    -0.0135 N.am    
   9 C9             4.8640     4.1715     0.0710 C.ar    
  10 O10            4.5539     1.8253    -1.1406 O.2     
  11 C11            4.9078     5.5558    -0.0316 C.ar    
  12 C12            6.1218     6.2158     0.0524 C.ar    
  13 C13            7.3016     5.4784     0.2410 C.ar    
  14 C14            7.2401     4.0841     0.3424 C.ar    
  15 C15            6.0370     3.4445     0.2639 C.ar    
  16 O16            6.1713     7.5677    -0.0476 O.3     
  17 C17            8.5976     6.1690     0.3312 C.2     
  18 O18            8.6484     7.3801     0.2424 O.2     
  19 O19            9.7287     5.4585     0.5123 O.3     
  20 H20           -0.8844     1.7835     0.5201 H       
  21 H21           -1.0047    -0.4294    -0.5476 H       
  22 H22            0.9787    -1.3866    -1.6437 H       
  23 H23            3.0967    -0.1366    -1.6737 H       
  24 H24            1.2249     3.0485     0.5053 H       
  25 H25            2.8412     3.9174     0.3497 H       
  26 H26            3.9963     6.1165    -0.1770 H       
  27 H27            8.1456     3.5137     0.4876 H       
  28 H28            5.9948     2.3682     0.3431 H       
  29 H29            6.0880     8.0279     0.7988 H       
  30 H30           10.5560     5.9563     0.5655 H       
@<TRIPOS>BOND
   1    1    2 ar
   2    1    6 ar
   3    1   20 1
   4    2    3 ar
   5    2   21 1
   6    3    4 ar
   7    3   22 1
   8    4    5 ar
   9    4   23 1
  10    5    6 ar
  11    5    7 1
  12    6   24 1
  13    7    8 am
  14    7   10 2
  15    8    9 1
  16    8   25 1
  17    9   11 ar
  18    9   15 ar
  19   11   12 ar
  20   11   26 1
  21   12   13 ar
  22   12   16 1
  23   13   14 ar
  24   13   17 1
  25   14   15 ar
  26   14   27 1
  27   15   28 1
  28   16   29 1
  29   17   18 2
  30   17   19 1
  31   19   30 1

#	End of record

