#	Name: ASD01913313
#	Creating user name:	WinNT
#	Creation time:	15. 06. 2019 20:01

#	Modifying user name:	WinNT
#	Modification time:	15. 06. 2019 20:01

#	Program:	/corina/corina34_cracker 3.40 0067  02.08.2006

@<TRIPOS>MOLECULE
ASD01913313
  38   40    0    0    0
SMALL
NO_CHARGES


@<TRIPOS>ATOM
   1 C1            -0.0169     1.3915     0.0097 C.ar    
   2 C2             0.0021    -0.0041     0.0020 C.ar    
   3 C3             1.2385    -0.6674    -0.0134 C.ar    
   4 C4             2.3914     0.0946    -0.0204 C.ar    
   5 C5             2.2887     1.4838    -0.0119 C.ar    
   6 N6             1.1075     2.0786     0.0026 N.ar    
   7 O7             3.4169     2.2376    -0.0187 O.3     
   8 C8            -1.2217    -0.7477     0.0102 C.1     
   9 C9            -2.2250    -1.3573     0.0170 C.1     
  10 C10           -3.4487    -2.1009     0.0252 C.ar    
  11 C11           -3.4214    -3.4980     0.0174 C.ar    
  12 C12           -4.6041    -4.2075     0.0259 C.ar    
  13 C13           -5.8157    -3.5392     0.0420 C.ar    
  14 C14           -5.8506    -2.1558     0.0498 C.ar    
  15 C15           -4.6760    -1.4330     0.0468 C.ar    
  16 C16            3.2490     3.6567    -0.0095 C.3     
  17 F17            3.6040    -0.5009    -0.0347 F       
  18 C18            4.6215     4.3327    -0.0190 C.3     
  19 C19            4.5570     5.8717    -0.0101 C.3     
  20 O20            5.6180     5.7978     0.9633 O.3     
  21 C21            5.2601     4.4637     1.3766 C.3     
  22 C22            5.5627     3.7599    -1.0806 C.3     
  23 H23           -0.9624     1.9133     0.0170 H       
  24 H24            1.2880    -1.7462    -0.0193 H       
  25 H25           -2.4765    -4.0209     0.0044 H       
  26 H26           -4.5846    -5.2873     0.0195 H       
  27 H27           -6.7387    -4.1000     0.0482 H       
  28 H28           -6.7999    -1.6410     0.0624 H       
  29 H29           -4.7047    -0.3534     0.0532 H       
  30 H30            2.6876     3.9619    -0.8925 H       
  31 H31            2.7046     3.9523     0.8874 H       
  32 H32            4.8545     6.3310    -0.9528 H       
  33 H33            3.6232     6.2716     0.3850 H       
  34 H34            4.5409     4.4338     2.1952 H       
  35 H35            6.1152     3.8064     1.5339 H       
  36 H36            5.2080     4.0434    -2.0716 H       
  37 H37            6.5669     4.1552    -0.9273 H       
  38 H38            5.5836     2.6732    -0.9993 H       
@<TRIPOS>BOND
   1    1    2 ar
   2    1    6 ar
   3    1   23 1
   4    2    3 ar
   5    2    8 1
   6    3    4 ar
   7    3   24 1
   8    4    5 ar
   9    4   17 1
  10    5    6 ar
  11    5    7 1
  12    7   16 1
  13    8    9 3
  14    9   10 1
  15   10   11 ar
  16   10   15 ar
  17   11   12 ar
  18   11   25 1
  19   12   13 ar
  20   12   26 1
  21   13   14 ar
  22   13   27 1
  23   14   15 ar
  24   14   28 1
  25   15   29 1
  26   16   18 1
  27   16   30 1
  28   16   31 1
  29   18   19 1
  30   18   22 1
  31   18   21 1
  32   19   20 1
  33   19   32 1
  34   19   33 1
  35   20   21 1
  36   21   34 1
  37   21   35 1
  38   22   36 1
  39   22   37 1
  40   22   38 1

#	End of record

