#	Name: ASD09310001
#	Creating user name:	WinNT
#	Creation time:	15. 06. 2019 21:21

#	Modifying user name:	WinNT
#	Modification time:	15. 06. 2019 21:21

#	Program:	/corina/corina34_cracker 3.40 0067  02.08.2006

@<TRIPOS>MOLECULE
ASD09310001
  53   58    0    0    0
SMALL
NO_CHARGES


@<TRIPOS>ATOM
   1 C1             1.8420    -0.2830     0.7272 C.3     
   2 C2             1.5284    -1.6228     1.4086 C.3     
   3 C3             0.6480    -1.2640     2.6235 C.3     
   4 C4             0.0079     0.1048     2.3191 C.3     
   5 C5             0.8426     0.7459     1.2273 C.3     
   6 C6             3.1999     0.1354     1.3405 C.3     
   7 O7             2.8261    -2.0958     1.8905 O.3     
   8 C8             3.5941    -1.0371     2.2061 C.2     
   9 O9             4.4608    -1.0264     3.0479 O.2     
  10 C10            2.0182    -0.3524    -0.7767 C.3     
  11 C11            3.5376    -0.3771    -1.0356 C.3     
  12 C12            4.1633     0.3618     0.1828 C.3     
  13 O13            4.0296    -1.7429    -0.9144 O.3     
  14 C14            5.2462    -1.7414    -0.3513 C.2     
  15 C15            5.4541    -0.4546     0.4170 C.3     
  16 O16            6.0551    -2.6342    -0.4429 O.2     
  17 O17            4.4067     1.7471    -0.0696 O.3     
  18 O18            2.9693     1.2975     2.1338 O.3     
  19 C19            1.7278     1.9090     1.7493 C.3     
  20 O20            1.9258     2.7208     0.5480 O.3     
  21 C21            0.7947     2.6940    -0.1847 C.2     
  22 C22            0.0375     1.4115     0.1137 C.3     
  23 O23            0.4392     3.5537    -0.9557 O.2     
  24 O24           -1.2867     1.7064     0.5626 O.3     
  25 C25            0.0251     0.9809     3.5734 C.3     
  26 C26            1.4555     1.0787     4.1076 C.3     
  27 C27            6.6677     0.3006    -0.1286 C.3     
  28 C28           -0.4860     2.3803     3.2251 C.3     
  29 C29           -0.8770     0.3597     4.6417 C.3     
  30 H30            1.0417    -2.3298     0.7368 H       
  31 H31           -0.1284    -2.0174     2.7568 H       
  32 H32            1.2616    -1.1973     3.5219 H       
  33 H33           -1.0168    -0.0316     1.9734 H       
  34 H34            1.5576    -1.2604    -1.1659 H       
  35 H35            1.5728     0.5246    -1.2465 H       
  36 H36            3.8037     0.0855    -1.9860 H       
  37 H37            5.5828    -0.6638     1.4790 H       
  38 H38            5.0250     1.9122    -0.7945 H       
  39 H39            1.2624     2.4600     2.5666 H       
  40 H40            0.0080     0.7726    -0.7690 H       
  41 H41           -1.8257     2.1794    -0.0861 H       
  42 H42            1.9104     2.0063     3.7603 H       
  43 H43            1.4378     1.0684     5.1974 H       
  44 H44            2.0372     0.2309     3.7456 H       
  45 H45            6.5171     0.5141    -1.1868 H       
  46 H46            6.7888     1.2363     0.4172 H       
  47 H47            7.5617    -0.3105    -0.0049 H       
  48 H48           -1.5732     2.3995     3.3018 H       
  49 H49           -0.0600     3.1056     3.9182 H       
  50 H50           -0.1891     2.6326     2.2071 H       
  51 H51           -0.5128    -0.6373     4.8899 H       
  52 H52           -0.8647     0.9838     5.5353 H       
  53 H53           -1.8960     0.2900     4.2612 H       
@<TRIPOS>BOND
   1    1    2 1
   2    1    6 1
   3    1   10 1
   4    1    5 1
   5    2    3 1
   6    2    7 1
   7    2   30 1
   8    3    4 1
   9    3   31 1
  10    3   32 1
  11    4    5 1
  12    4   25 1
  13    4   33 1
  14    5   19 1
  15    5   22 1
  16    6    8 1
  17    6   18 1
  18    6   12 1
  19    7    8 1
  20    8    9 2
  21   10   11 1
  22   10   34 1
  23   10   35 1
  24   11   12 1
  25   11   13 1
  26   11   36 1
  27   12   17 1
  28   12   15 1
  29   13   14 1
  30   14   15 1
  31   14   16 2
  32   15   27 1
  33   15   37 1
  34   17   38 1
  35   18   19 1
  36   19   20 1
  37   19   39 1
  38   20   21 1
  39   21   22 1
  40   21   23 2
  41   22   24 1
  42   22   40 1
  43   24   41 1
  44   25   26 1
  45   25   28 1
  46   25   29 1
  47   26   42 1
  48   26   43 1
  49   26   44 1
  50   27   45 1
  51   27   46 1
  52   27   47 1
  53   28   48 1
  54   28   49 1
  55   28   50 1
  56   29   51 1
  57   29   52 1
  58   29   53 1

#	End of record

