#	Name: ASD04882001
#	Creating user name:	WinNT
#	Creation time:	15. 06. 2019 20:53

#	Modifying user name:	WinNT
#	Modification time:	15. 06. 2019 20:53

#	Program:	/corina/corina34_cracker 3.40 0067  02.08.2006

@<TRIPOS>MOLECULE
ASD04882001
  80   84    0    0    0
SMALL
NO_CHARGES


@<TRIPOS>ATOM
   1 C1            -0.3471     1.9735    -1.3027 C.ar    
   2 C2            -0.4141     0.6026    -1.4671 C.ar    
   3 C3             0.7442    -0.1518    -1.4600 C.ar    
   4 C4             1.9696     0.4647    -1.2888 C.ar    
   5 C5             2.0366     1.8357    -1.1253 C.ar    
   6 C6             0.8782     2.5900    -1.1310 C.ar    
   7 C7             3.3724     2.5078    -0.9382 C.3     
   8 O8             3.9041     2.8740    -2.2130 O.3     
   9 C9             5.1128     3.4952    -2.2221 C.ar    
  10 C10            5.6881     3.8785    -3.4249 C.ar    
  11 C11            6.9168     4.5097    -3.4314 C.ar    
  12 C12            7.5733     4.7596    -2.2405 C.ar    
  13 C13            7.0024     4.3781    -1.0404 C.ar    
  14 C14            5.7709     3.7521    -1.0281 C.ar    
  15 C15            8.9137     5.4484    -2.2505 C.3     
  16 S16           10.2754     4.2174    -2.3229 S.3     
  17 C17           11.3487     5.1366    -1.1479 C.3     
  18 C18           10.3481     6.0029    -0.4094 C.2     
  19 N19            9.1537     6.1363    -0.9736 N.am    
  20 O20           10.6236     6.5453     0.6399 O.2     
  21 C21           12.0514     4.1760    -0.1865 C.3     
  22 C22           13.0243     3.3189    -0.9546 C.2     
  23 N23           13.7615     2.3930    -0.3098 N.am    
  24 O24           13.1438     3.4623    -2.1529 O.2     
  25 C25           14.7072     1.5598    -1.0565 C.3     
  26 C26           15.4099     0.5991    -0.0951 C.3     
  27 C27           16.3828    -0.2580    -0.8632 C.ar    
  28 C28           17.6885     0.1626    -1.0315 C.ar    
  29 C29           18.5851    -0.6202    -1.7355 C.ar    
  30 C30           18.1751    -1.8290    -2.2738 C.ar    
  31 C31           16.8601    -2.2526    -2.1043 C.ar    
  32 C32           15.9686    -1.4662    -1.3932 C.ar    
  33 O33           16.4529    -3.4385    -2.6309 O.3     
  34 C34           15.0894    -3.8090    -2.4174 C.3     
  35 O35           19.0555    -2.5999    -2.9668 O.3     
  36 C36           20.3880    -2.1017    -3.1013 C.3     
  37 C37            8.1538     6.9087    -0.3715 C.ar    
  38 C38            7.7525     6.6331     0.9262 C.ar    
  39 C39            6.7556     7.4058     1.5219 C.ar    
  40 C40            6.1688     8.4513     0.8071 C.ar    
  41 C41            6.5756     8.7176    -0.4847 C.ar    
  42 C42            7.5674     7.9555    -1.0728 C.ar    
  43 C43            6.3214     7.1180     2.9057 C.2     
  44 N44            5.3580     7.8660     3.4791 N.am    
  45 O45            6.8335     6.2068     3.5262 O.2     
  46 H46           -1.2517     2.5634    -1.3127 H       
  47 H47           -1.3714     0.1209    -1.6008 H       
  48 H48            0.6918    -1.2229    -1.5878 H       
  49 H49            2.8745    -0.1248    -1.2825 H       
  50 H50            0.9306     3.6611    -1.0036 H       
  51 H51            3.2472     3.4012    -0.3265 H       
  52 H52            4.0584     1.8211    -0.4421 H       
  53 H53            5.1758     3.6832    -4.3554 H       
  54 H54            7.3652     4.8080    -4.3676 H       
  55 H55            7.5174     4.5738    -0.1115 H       
  56 H56            5.3253     3.4544    -0.0905 H       
  57 H57            8.9804     6.1460    -3.0853 H       
  58 H58           12.0731     5.7506    -1.6830 H       
  59 H59           12.5893     4.7476     0.5698 H       
  60 H60           11.3104     3.5398     0.2977 H       
  61 H61           13.6659     2.2783     0.6487 H       
  62 H62           14.1693     0.9881    -1.8127 H       
  63 H63           15.4482     2.1959    -1.5406 H       
  64 H64           15.9479     1.1708     0.6612 H       
  65 H65           14.6690    -0.0370     0.3891 H       
  66 H66           18.0093     1.1050    -0.6126 H       
  67 H67           19.6048    -0.2891    -1.8659 H       
  68 H68           14.9477    -1.7926    -1.2602 H       
  69 H69           14.8970    -4.7732    -2.8879 H       
  70 H70           14.8960    -3.8820    -1.3472 H       
  71 H71           14.4352    -3.0546    -2.8543 H       
  72 H72           20.3670    -1.1431    -3.6197 H       
  73 H73           20.8284    -1.9707    -2.1129 H       
  74 H74           20.9852    -2.8114    -3.6739 H       
  75 H75            8.2099     5.8227     1.4742 H       
  76 H76            5.3964     9.0516     1.2646 H       
  77 H77            6.1204     9.5270    -1.0362 H       
  78 H78            7.8817     8.1688    -2.0838 H       
  79 H79            4.9494     8.5932     2.9839 H       
  80 H80            5.0732     7.6772     4.3869 H       
@<TRIPOS>BOND
   1    1    2 ar
   2    1    6 ar
   3    1   46 1
   4    2    3 ar
   5    2   47 1
   6    3    4 ar
   7    3   48 1
   8    4    5 ar
   9    4   49 1
  10    5    6 ar
  11    5    7 1
  12    6   50 1
  13    7    8 1
  14    7   51 1
  15    7   52 1
  16    8    9 1
  17    9   10 ar
  18    9   14 ar
  19   10   11 ar
  20   10   53 1
  21   11   12 ar
  22   11   54 1
  23   12   13 ar
  24   12   15 1
  25   13   14 ar
  26   13   55 1
  27   14   56 1
  28   15   16 1
  29   15   19 1
  30   15   57 1
  31   16   17 1
  32   17   18 1
  33   17   21 1
  34   17   58 1
  35   18   19 am
  36   18   20 2
  37   19   37 1
  38   21   22 1
  39   21   59 1
  40   21   60 1
  41   22   23 am
  42   22   24 2
  43   23   25 1
  44   23   61 1
  45   25   26 1
  46   25   62 1
  47   25   63 1
  48   26   27 1
  49   26   64 1
  50   26   65 1
  51   27   28 ar
  52   27   32 ar
  53   28   29 ar
  54   28   66 1
  55   29   30 ar
  56   29   67 1
  57   30   31 ar
  58   30   35 1
  59   31   32 ar
  60   31   33 1
  61   32   68 1
  62   33   34 1
  63   34   69 1
  64   34   70 1
  65   34   71 1
  66   35   36 1
  67   36   72 1
  68   36   73 1
  69   36   74 1
  70   37   38 ar
  71   37   42 ar
  72   38   39 ar
  73   38   75 1
  74   39   40 ar
  75   39   43 1
  76   40   41 ar
  77   40   76 1
  78   41   42 ar
  79   41   77 1
  80   42   78 1
  81   43   44 am
  82   43   45 2
  83   44   79 1
  84   44   80 1

#	End of record

