#	Name: ASD03731599
#	Creating user name:	WinNT
#	Creation time:	15. 06. 2019 20:46

#	Modifying user name:	WinNT
#	Modification time:	15. 06. 2019 20:46

#	Program:	/corina/corina34_cracker 3.40 0067  02.08.2006

@<TRIPOS>MOLECULE
ASD03731599
  40   41    0    0    0
SMALL
NO_CHARGES


@<TRIPOS>ATOM
   1 C1            -0.4034     1.1034    -1.9586 C.2     
   2 C2            -0.2822    -0.2735    -1.4496 C.ar    
   3 C3             0.9034    -0.9962    -1.6494 C.ar    
   4 C4             1.0102    -2.2894    -1.1679 C.ar    
   5 C5            -0.0526    -2.8685    -0.4904 C.ar    
   6 C6            -1.2315    -2.1531    -0.2910 C.ar    
   7 C7            -1.3469    -0.8634    -0.7602 C.ar    
   8 O8             0.5256     1.6159    -2.5532 O.2     
   9 N9            -1.5457     1.7935    -1.7701 N.am    
  10 S10           -1.6819     3.3415    -2.3422 S.o2    
  11 O11           -2.9836     3.7490    -1.9440 O.2     
  12 O12           -0.5244     4.0010    -1.8477 O.2     
  13 C13           -1.5934     3.1669    -4.1457 C.3     
  14 O14            1.9424    -0.4292    -2.3131 O.3     
  15 C15            3.1179    -1.2246    -2.4789 C.3     
  16 F16           -2.2626    -2.7244     0.3690 F       
  17 O17            0.0560    -4.1372    -0.0202 O.3     
  18 C18            1.2574    -4.7612    -0.1396 C.ar    
  19 C19            2.2090    -4.6340     0.8624 C.ar    
  20 C20            3.4291    -5.2694     0.7393 C.ar    
  21 C21            3.7030    -6.0325    -0.3823 C.ar    
  22 C22            2.7556    -6.1606    -1.3823 C.ar    
  23 C23            1.5319    -5.5309    -1.2606 C.ar    
  24 C24            4.4631    -5.1312     1.8269 C.3     
  25 F25            3.9599    -4.3182     2.8482 F       
  26 F26            4.7676    -6.3949     2.3441 F       
  27 F27            5.6217    -4.5522     1.2980 F       
  28 Cl28           5.2376    -6.8296    -0.5348 Cl      
  29 H29            1.9217    -2.8483    -1.3201 H       
  30 H30           -2.2601    -0.3096    -0.6000 H       
  31 H31           -2.2880     1.3833    -1.2993 H       
  32 H32           -2.4102     2.5325    -4.4898 H       
  33 H33           -1.6759     4.1495    -4.6103 H       
  34 H34           -0.6409     2.7139    -4.4205 H       
  35 H35            3.8691    -0.6535    -3.0244 H       
  36 H36            3.5110    -1.5005    -1.5004 H       
  37 H37            2.8702    -2.1267    -3.0385 H       
  38 H38            1.9958    -4.0383     1.7376 H       
  39 H39            2.9713    -6.7563    -2.2570 H       
  40 H40            0.7910    -5.6345    -2.0396 H       
@<TRIPOS>BOND
   1    1    2 1
   2    1    8 2
   3    1    9 am
   4    2    3 ar
   5    2    7 ar
   6    3    4 ar
   7    3   14 1
   8    4    5 ar
   9    4   29 1
  10    5    6 ar
  11    5   17 1
  12    6    7 ar
  13    6   16 1
  14    7   30 1
  15    9   10 am
  16    9   31 1
  17   10   11 2
  18   10   12 2
  19   10   13 1
  20   13   32 1
  21   13   33 1
  22   13   34 1
  23   14   15 1
  24   15   35 1
  25   15   36 1
  26   15   37 1
  27   17   18 1
  28   18   19 ar
  29   18   23 ar
  30   19   20 ar
  31   19   38 1
  32   20   21 ar
  33   20   24 1
  34   21   22 ar
  35   21   28 1
  36   22   23 ar
  37   22   39 1
  38   23   40 1
  39   24   25 1
  40   24   26 1
  41   24   27 1

#	End of record

