#	Name: ASD08150957
#	Creating user name:	WinNT
#	Creation time:	15. 06. 2019 21:16

#	Modifying user name:	WinNT
#	Modification time:	15. 06. 2019 21:16

#	Program:	/corina/corina34_cracker 3.40 0067  02.08.2006

@<TRIPOS>MOLECULE
ASD08150957
  62   67    0    0    0
SMALL
NO_CHARGES


@<TRIPOS>ATOM
   1 N1             0.0864     1.4015    -0.4866 N.2     
   2 C2             0.1358     0.1051    -0.5886 C.2     
   3 N3             1.4326    -0.3062    -0.6756 N.pl3   
   4 C4             2.2236     0.8136    -0.6231 C.ar    
   5 N5             3.5324     1.0407    -0.6619 N.ar    
   6 C6             4.0029     2.2680    -0.5878 C.ar    
   7 N7             3.2168     3.3227    -0.4727 N.ar    
   8 C8             1.8948     3.1940    -0.4258 C.ar    
   9 C9             1.3447     1.9033    -0.5017 C.ar    
  10 N10            1.0791     4.3053    -0.3045 N.pl3   
  11 C11            1.6708     5.6432    -0.2262 C.3     
  12 C12            2.0215     6.1290    -1.6340 C.3     
  13 N13            0.6285     9.6594     2.3544 N.ar    
  14 C14           -0.2264    10.4886     2.9021 C.ar    
  15 C15           -1.6022    10.2901     2.8084 C.ar    
  16 C16           -2.0902     9.2086     2.1320 C.ar    
  17 C17           -1.1686     8.3207     1.5454 C.ar    
  18 C18           -1.5979     7.1875     0.8343 C.ar    
  19 C19           -0.6805     6.3472     0.2775 C.ar    
  20 C20            0.6835     6.5932     0.4015 C.ar    
  21 C21            1.1430     7.6939     1.0913 C.ar    
  22 C22            0.2169     8.5828     1.6793 C.ar    
  23 N23            2.5135     7.9281     1.2083 N.3     
  24 C24            2.9411     7.8617     2.6127 C.3     
  25 C25            4.4587     8.0444     2.6903 C.3     
  26 N26            4.8253     9.3355     2.0916 N.3     
  27 C27            4.3977     9.4019     0.6872 C.3     
  28 C28            2.8801     9.2192     0.6097 C.3     
  29 C29            6.2682     9.5821     2.2148 C.3     
  30 C30            6.9744    13.1333     1.1359 C.ar    
  31 C31            6.6220    12.0570     1.9279 C.ar    
  32 C32            6.6455    10.7817     1.3844 C.ar    
  33 C33            7.0248    10.6363     0.0587 C.ar    
  34 C34            7.3644    11.7594    -0.6716 C.ar    
  35 N35            7.3302    12.9574    -0.1217 N.ar    
  36 Cl36          -3.2940     6.8580     0.6656 Cl      
  37 H37           -0.7237    -0.5486    -0.6019 H       
  38 H38            1.7397    -1.2225    -0.7590 H       
  39 H39            5.0719     2.4178    -0.6222 H       
  40 H40            0.1155     4.1984    -0.2713 H       
  41 H41            2.5752     5.6056     0.3810 H       
  42 H42            2.8007     5.4930    -2.0542 H       
  43 H43            1.1346     6.0825    -2.2659 H       
  44 H44            2.3791     7.1574    -1.5849 H       
  45 H45            0.1455    11.3479     3.4403 H       
  46 H46           -2.2822    10.9905     3.2705 H       
  47 H47           -3.1536     9.0390     2.0498 H       
  48 H48           -1.0171     5.4779    -0.2679 H       
  49 H49            2.4502     8.6524     3.1801 H       
  50 H50            2.6698     6.8920     3.0300 H       
  51 H51            4.7745     8.0244     3.7333 H       
  52 H52            4.9503     7.2383     2.1456 H       
  53 H53            4.6690    10.3716     0.2699 H       
  54 H54            4.8886     8.6112     0.1198 H       
  55 H55            2.5642     9.2392    -0.4334 H       
  56 H56            2.3885    10.0253     1.1543 H       
  57 H57            6.5168     9.7705     3.2592 H       
  58 H58            6.8174     8.7090     1.8624 H       
  59 H59            6.9544    14.1303     1.5505 H       
  60 H60            6.3318    12.2074     2.9573 H       
  61 H61            7.0548     9.6578    -0.3973 H       
  62 H62            7.6610    11.6546    -1.7048 H       
@<TRIPOS>BOND
   1    1    2 2
   2    1    9 1
   3    2    3 1
   4    2   37 1
   5    3    4 1
   6    3   38 1
   7    4    5 ar
   8    4    9 ar
   9    5    6 ar
  10    6    7 ar
  11    6   39 1
  12    7    8 ar
  13    8    9 ar
  14    8   10 1
  15   10   11 1
  16   10   40 1
  17   11   12 1
  18   11   20 1
  19   11   41 1
  20   12   42 1
  21   12   43 1
  22   12   44 1
  23   13   14 ar
  24   13   22 ar
  25   14   15 ar
  26   14   45 1
  27   15   16 ar
  28   15   46 1
  29   16   17 ar
  30   16   47 1
  31   17   18 ar
  32   17   22 ar
  33   18   19 ar
  34   18   36 1
  35   19   20 ar
  36   19   48 1
  37   20   21 ar
  38   21   22 ar
  39   21   23 1
  40   23   24 1
  41   23   28 1
  42   24   25 1
  43   24   49 1
  44   24   50 1
  45   25   26 1
  46   25   51 1
  47   25   52 1
  48   26   27 1
  49   26   29 1
  50   27   28 1
  51   27   53 1
  52   27   54 1
  53   28   55 1
  54   28   56 1
  55   29   32 1
  56   29   57 1
  57   29   58 1
  58   30   31 ar
  59   30   35 ar
  60   30   59 1
  61   31   32 ar
  62   31   60 1
  63   32   33 ar
  64   33   34 ar
  65   33   61 1
  66   34   35 ar
  67   34   62 1

#	End of record

