#	Name: ASD01908321
#	Creating user name:	WinNT
#	Creation time:	15. 06. 2019 19:54

#	Modifying user name:	WinNT
#	Modification time:	15. 06. 2019 19:54

#	Program:	/corina/corina34_cracker 3.40 0067  02.08.2006

@<TRIPOS>MOLECULE
ASD01908321
  26   28    0    0    0
SMALL
NO_CHARGES


@<TRIPOS>ATOM
   1 S1            -0.0227     1.7556    -0.0029 S.3     
   2 C2             0.0020    -0.0056    -0.0257 C.2     
   3 N3             1.2386    -0.4160    -0.0336 N.2     
   4 C4             2.1756     0.5102    -0.0237 C.2     
   5 C5             1.7395     1.7779    -0.0064 C.2     
   6 N6             3.5426     0.1902    -0.0303 N.pl3   
   7 N7            -3.2695    -1.5707    -0.0369 N.pl3   
   8 N8            -2.4343    -2.6941    -0.0528 N.2     
   9 C9            -1.1923    -2.2899    -0.0511 C.2     
  10 C10           -1.1912    -0.8795    -0.0339 C.2     
  11 C11           -2.4948    -0.4682    -0.0255 C.2     
  12 C12            3.9464    -1.1367     0.0636 C.ar    
  13 C13            5.2947    -1.4567    -0.0559 C.ar    
  14 C14            5.6843    -2.7810     0.0394 C.ar    
  15 C15            4.7092    -3.7452     0.2518 C.ar    
  16 C16            3.3854    -3.3572     0.3614 C.ar    
  17 N17            3.0440    -2.0840     0.2715 N.ar    
  18 F18            2.4312    -4.2911     0.5678 F       
  19 H19            2.3612     2.6610     0.0033 H       
  20 H20            4.2054     0.8950    -0.1004 H       
  21 H21           -4.2394    -1.5836    -0.0382 H       
  22 H22           -0.3186    -2.9247    -0.0608 H       
  23 H23           -2.8409     0.5548    -0.0121 H       
  24 H24            6.0282    -0.6814    -0.2213 H       
  25 H25            6.7243    -3.0581    -0.0500 H       
  26 H26            4.9806    -4.7876     0.3304 H       
@<TRIPOS>BOND
   1    1    2 1
   2    1    5 1
   3    2    3 2
   4    2   10 1
   5    3    4 1
   6    4    5 2
   7    4    6 1
   8    5   19 1
   9    6   12 1
  10    6   20 1
  11    7    8 1
  12    7   11 1
  13    7   21 1
  14    8    9 2
  15    9   10 1
  16    9   22 1
  17   10   11 2
  18   11   23 1
  19   12   13 ar
  20   12   17 ar
  21   13   14 ar
  22   13   24 1
  23   14   15 ar
  24   14   25 1
  25   15   16 ar
  26   15   26 1
  27   16   17 ar
  28   16   18 1

#	End of record

