#	Name: ASD01915875
#	Creating user name:	WinNT
#	Creation time:	15. 06. 2019 20:06

#	Modifying user name:	WinNT
#	Modification time:	15. 06. 2019 20:06

#	Program:	/corina/corina34_cracker 3.40 0067  02.08.2006

@<TRIPOS>MOLECULE
ASD01915875
  49   53    0    0    0
SMALL
NO_CHARGES


@<TRIPOS>ATOM
   1 C1            -0.0042     1.4688     0.2351 C.2     
   2 N2             0.0663     0.1194    -0.0302 N.pl3   
   3 C3            -1.1427    -0.6634    -0.3133 C.3     
   4 C4            -2.3279    -0.0487     0.4292 C.3     
   5 N5            -2.4045     1.3987     0.2637 N.am    
   6 C6            -1.2936     2.1743     0.2865 C.2     
   7 C7             1.2762     1.9061     0.4264 C.2     
   8 C8             2.0759     0.7654     0.2740 C.2     
   9 N9             1.2866    -0.2499     0.0108 N.2     
  10 C10            3.5774     0.7134     0.3919 C.3     
  11 O11            4.0775     2.0191     0.6871 O.3     
  12 C12            5.4232     2.1474     0.8266 C.ar    
  13 O13           -1.3592     3.3875     0.3467 O.2     
  14 C14            5.9770     3.3866     1.1135 C.ar    
  15 C15            6.2449     1.0383     0.6881 C.ar    
  16 C16            7.6126     1.1713     0.8303 C.ar    
  17 C17            8.1626     2.4085     1.1106 C.ar    
  18 C18            7.3452     3.5144     1.2548 C.ar    
  19 C19           -3.6548     2.0005     0.0765 C.ar    
  20 C20           -4.5752     1.9994     1.1024 C.ar    
  21 C21           -3.9578     2.6011    -1.1440 C.ar    
  22 C22           -5.1845     3.1941    -1.3332 C.ar    
  23 C23           -6.1275     3.1968    -0.3077 C.ar    
  24 C24           -5.8365     2.6020     0.9251 C.ar    
  25 S25           -7.7592     3.8545    -0.2222 S.3     
  26 C26           -7.9245     3.3022     1.3839 C.2     
  27 N27           -6.8674     2.7039     1.7858 N.2     
  28 C28           -9.1592     3.4989     2.2252 C.3     
  29 C29           -1.4196    -0.6491    -1.8180 C.3     
  30 H30           -0.9974    -1.6908     0.0206 H       
  31 H31           -3.2486    -0.4952     0.0538 H       
  32 H32           -2.2353    -0.2773     1.4909 H       
  33 H33            1.6013     2.9122     0.6465 H       
  34 H34            3.8554     0.0283     1.1928 H       
  35 H35            4.0039     0.3650    -0.5487 H       
  36 H36            5.3390     4.2508     1.2259 H       
  37 H37            5.8158     0.0716     0.4695 H       
  38 H38            8.2527     0.3081     0.7229 H       
  39 H39            9.2320     2.5104     1.2215 H       
  40 H40            7.7772     4.4798     1.4734 H       
  41 H41           -4.3288     1.5347     2.0456 H       
  42 H42           -3.2292     2.6013    -1.9412 H       
  43 H43           -5.4172     3.6593    -2.2797 H       
  44 H44           -9.9096     4.0396     1.6484 H       
  45 H45           -9.5572     2.5276     2.5191 H       
  46 H46           -8.9039     4.0718     3.1167 H       
  47 H47           -0.5724    -1.0851    -2.3475 H       
  48 H48           -2.3174    -1.2305    -2.0277 H       
  49 H49           -1.5662     0.3785    -2.1507 H       
@<TRIPOS>BOND
   1    1    2 1
   2    1    7 2
   3    1    6 1
   4    2    3 1
   5    2    9 1
   6    3    4 1
   7    3   29 1
   8    3   30 1
   9    4    5 1
  10    4   31 1
  11    4   32 1
  12    5    6 am
  13    5   19 1
  14    6   13 2
  15    7    8 1
  16    7   33 1
  17    8    9 2
  18    8   10 1
  19   10   11 1
  20   10   34 1
  21   10   35 1
  22   11   12 1
  23   12   14 ar
  24   12   15 ar
  25   14   18 ar
  26   14   36 1
  27   15   16 ar
  28   15   37 1
  29   16   17 ar
  30   16   38 1
  31   17   18 ar
  32   17   39 1
  33   18   40 1
  34   19   20 ar
  35   19   21 ar
  36   20   24 ar
  37   20   41 1
  38   21   22 ar
  39   21   42 1
  40   22   23 ar
  41   22   43 1
  42   23   24 ar
  43   23   25 1
  44   24   27 1
  45   25   26 1
  46   26   27 2
  47   26   28 1
  48   28   44 1
  49   28   45 1
  50   28   46 1
  51   29   47 1
  52   29   48 1
  53   29   49 1

#	End of record

