#	Name: ASD03470025
#	Creating user name:	WinNT
#	Creation time:	15. 06. 2019 20:42

#	Modifying user name:	WinNT
#	Modification time:	15. 06. 2019 20:42

#	Program:	/corina/corina34_cracker 3.40 0067  02.08.2006

@<TRIPOS>MOLECULE
ASD03470025
  62   64    0    0    0
SMALL
NO_CHARGES


@<TRIPOS>ATOM
   1 Cl1            7.6918    -2.7805    -0.0817 Cl      
   2 N2            -0.0159     1.3228     0.0093 N.ar    
   3 C3             0.0021    -0.0041     0.0020 C.ar    
   4 C4             1.2084    -0.6970    -0.0128 C.ar    
   5 C5             2.4020     0.0258    -0.0203 C.ar    
   6 C6             2.3307     1.4229    -0.0126 C.ar    
   7 C7             1.0936     2.0345     0.0025 C.ar    
   8 C8             3.7126    -0.6693    -0.0356 C.ar    
   9 C9             4.0814    -1.4418    -1.1353 C.ar    
  10 C10            5.3014    -2.0864    -1.1447 C.ar    
  11 C11            6.1585    -1.9667    -0.0641 C.ar    
  12 C12            5.7967    -1.2004     1.0308 C.ar    
  13 C13            4.5813    -0.5473     1.0473 C.ar    
  14 C14            1.2257    -2.2039    -0.0200 C.3     
  15 C15            1.0100     3.5391     0.0109 C.3     
  16 C16           -1.2768    -0.7560     0.0102 C.ar    
  17 C17           -1.3859    -1.9577    -0.6865 C.ar    
  18 C18           -2.5781    -2.6533    -0.6751 C.ar    
  19 C19           -3.6632    -2.1594     0.0258 C.ar    
  20 C20           -3.5607    -0.9665     0.7190 C.ar    
  21 C21           -2.3718    -0.2658     0.7196 C.ar    
  22 C22           -4.9623    -2.9231     0.0342 C.3     
  23 C23           -4.7476    -0.4344     1.4800 C.3     
  24 C24            3.5901     2.2504    -0.0197 C.3     
  25 C25            3.7957     2.8405    -1.3910 C.2     
  26 O26            3.4737     3.3033     0.9394 O.3     
  27 C27            4.7186     3.7075     1.5129 C.3     
  28 C28            5.6518     4.2051     0.4072 C.3     
  29 C29            4.4747     4.8335     2.5196 C.3     
  30 C30            5.3623     2.5166     2.2258 C.3     
  31 O31            3.7480     4.0377    -1.5469 O.2     
  32 O32            4.0318     2.0361    -2.4393 O.3     
  33 H33            3.4133    -1.5361    -1.9786 H       
  34 H34            5.5880    -2.6856    -1.9963 H       
  35 H35            6.4687    -1.1100     1.8714 H       
  36 H36            4.3019     0.0541     1.8997 H       
  37 H37            1.2201    -2.5624    -1.0494 H       
  38 H38            2.1247    -2.5594     0.4836 H       
  39 H39            0.3449    -2.5799     0.5005 H       
  40 H40            0.9994     3.8967     1.0405 H       
  41 H41            1.8736     3.9539    -0.5089 H       
  42 H42            0.0964     3.8550    -0.4928 H       
  43 H43           -0.5394    -2.3439    -1.2348 H       
  44 H44           -2.6638    -3.5849    -1.2148 H       
  45 H45           -2.2914     0.6629     1.2650 H       
  46 H46           -4.9687    -3.6199     0.8724 H       
  47 H47           -5.7934    -2.2253     0.1354 H       
  48 H48           -5.0643    -3.4767    -0.8993 H       
  49 H49           -4.7272    -0.8185     2.4999 H       
  50 H50           -4.7073     0.6546     1.5010 H       
  51 H51           -5.6669    -0.7545     0.9896 H       
  52 H52            4.4412     1.6190     0.2355 H       
  53 H53            5.1932     5.0536    -0.1007 H       
  54 H54            6.6014     4.5134     0.8446 H       
  55 H55            5.8255     3.4029    -0.3100 H       
  56 H56            3.8099     4.4790     3.3073 H       
  57 H57            5.4243     5.1418     2.9570 H       
  58 H58            4.0162     5.6820     2.0117 H       
  59 H59            5.5360     1.7143     1.5086 H       
  60 H60            6.3118     2.8248     2.6632 H       
  61 H61            4.6975     2.1620     3.0135 H       
  62 H62            4.1573     2.4607    -3.2990 H       
@<TRIPOS>BOND
   1    1   11 1
   2    2    3 ar
   3    2    7 ar
   4    3    4 ar
   5    3   16 1
   6    4    5 ar
   7    4   14 1
   8    5    6 ar
   9    5    8 1
  10    6    7 ar
  11    6   24 1
  12    7   15 1
  13    8    9 ar
  14    8   13 ar
  15    9   10 ar
  16    9   33 1
  17   10   11 ar
  18   10   34 1
  19   11   12 ar
  20   12   13 ar
  21   12   35 1
  22   13   36 1
  23   14   37 1
  24   14   38 1
  25   14   39 1
  26   15   40 1
  27   15   41 1
  28   15   42 1
  29   16   17 ar
  30   16   21 ar
  31   17   18 ar
  32   17   43 1
  33   18   19 ar
  34   18   44 1
  35   19   20 ar
  36   19   22 1
  37   20   21 ar
  38   20   23 1
  39   21   45 1
  40   22   46 1
  41   22   47 1
  42   22   48 1
  43   23   49 1
  44   23   50 1
  45   23   51 1
  46   24   25 1
  47   24   26 1
  48   24   52 1
  49   25   31 2
  50   25   32 1
  51   26   27 1
  52   27   28 1
  53   27   29 1
  54   27   30 1
  55   28   53 1
  56   28   54 1
  57   28   55 1
  58   29   56 1
  59   29   57 1
  60   29   58 1
  61   30   59 1
  62   30   60 1
  63   30   61 1
  64   32   62 1

#	End of record

