#	Name: ASD00191002
#	Creating user name:	WinNT
#	Creation time:	15. 06. 2019 18:33

#	Modifying user name:	WinNT
#	Modification time:	15. 06. 2019 18:33

#	Program:	/corina/corina34_cracker 3.40 0067  02.08.2006

@<TRIPOS>MOLECULE
ASD00191002
  46   49    0    0    0
SMALL
NO_CHARGES


@<TRIPOS>ATOM
   1 C1            -1.1151     0.9901     0.3624 C.3     
   2 C2            -1.2225    -0.5449     0.3610 C.3     
   3 C3             0.2211    -1.0876     0.3224 C.3     
   4 C4             1.0759     0.0651     0.9051 C.3     
   5 C5             0.3899     1.3267     0.3246 C.3     
   6 C6            -1.8015     1.5567    -0.8537 C.2     
   7 O7            -2.3301     0.8134    -1.6531 O.2     
   8 N8            -1.8280     2.8893    -1.0529 N.am    
   9 N9            -3.2498     4.4177    -4.6559 N.ar    
  10 C10           -2.7369     3.2040    -4.6029 C.ar    
  11 C11           -2.2508     2.6643    -3.4080 C.ar    
  12 C12           -2.3038     3.4038    -2.2552 C.ar    
  13 C13           -2.8570     4.7066    -2.3217 C.ar    
  14 C14           -2.9430     5.5192    -1.1840 C.ar    
  15 C15           -3.4810     6.7678    -1.2858 C.ar    
  16 C16           -3.9464     7.2462    -2.5072 C.ar    
  17 C17           -3.8779     6.4813    -3.6323 C.ar    
  18 C18           -3.3293     5.1899    -3.5650 C.ar    
  19 N19           -2.6776     2.4432    -5.7625 N.pl3   
  20 C20           -3.3586     2.8627    -6.9094 C.ar    
  21 C21           -3.7729     1.9307    -7.8524 C.ar    
  22 C22           -4.4457     2.3482    -8.9850 C.ar    
  23 C23           -4.7062     3.6947    -9.1799 C.ar    
  24 C24           -4.2938     4.6242    -8.2420 C.ar    
  25 C25           -3.6268     4.2113    -7.1049 C.ar    
  26 Cl26          -4.9641     1.1847   -10.1644 Cl      
  27 Cl27          -5.5510     4.2167   -10.6038 Cl      
  28 H28           -1.5657     1.3950     1.2686 H       
  29 H29           -1.7250    -0.8849     1.2665 H       
  30 H30           -1.7710    -0.8801    -0.5193 H       
  31 H31            0.3100    -1.9796     0.9424 H       
  32 H32            0.5202    -1.3034    -0.7033 H       
  33 H33            1.0305     0.0673     1.9941 H       
  34 H34            2.1075    -0.0067     0.5606 H       
  35 H35            0.7162     1.5007    -0.7008 H       
  36 H36            0.6020     2.1965     0.9463 H       
  37 H37           -1.5154     3.4899    -0.3583 H       
  38 H38           -1.8361     1.6671    -3.3933 H       
  39 H39           -2.5853     5.1584    -0.2309 H       
  40 H40           -3.5471     7.3933    -0.4079 H       
  41 H41           -4.3686     8.2386    -2.5637 H       
  42 H42           -4.2439     6.8664    -4.5726 H       
  43 H43           -2.1638     1.6206    -5.7771 H       
  44 H44           -3.5692     0.8810    -7.7008 H       
  45 H45           -4.4976     5.6735    -8.3967 H       
  46 H46           -3.3099     4.9372    -6.3708 H       
@<TRIPOS>BOND
   1    1    2 1
   2    1    5 1
   3    1    6 1
   4    1   28 1
   5    2    3 1
   6    2   29 1
   7    2   30 1
   8    3    4 1
   9    3   31 1
  10    3   32 1
  11    4    5 1
  12    4   33 1
  13    4   34 1
  14    5   35 1
  15    5   36 1
  16    6    7 2
  17    6    8 am
  18    8   12 1
  19    8   37 1
  20    9   10 ar
  21    9   18 ar
  22   10   11 ar
  23   10   19 1
  24   11   12 ar
  25   11   38 1
  26   12   13 ar
  27   13   14 ar
  28   13   18 ar
  29   14   15 ar
  30   14   39 1
  31   15   16 ar
  32   15   40 1
  33   16   17 ar
  34   16   41 1
  35   17   18 ar
  36   17   42 1
  37   19   20 1
  38   19   43 1
  39   20   21 ar
  40   20   25 ar
  41   21   22 ar
  42   21   44 1
  43   22   23 ar
  44   22   26 1
  45   23   24 ar
  46   23   27 1
  47   24   25 ar
  48   24   45 1
  49   25   46 1

#	End of record

