#	Name: ASD00172006
#	Creating user name:	WinNT
#	Creation time:	15. 06. 2019 18:33

#	Modifying user name:	WinNT
#	Modification time:	15. 06. 2019 18:33

#	Program:	/corina/corina34_cracker 3.40 0067  02.08.2006

@<TRIPOS>MOLECULE
ASD00172006
  47   49    0    0    0
SMALL
NO_CHARGES


@<TRIPOS>ATOM
   1 C1            -0.0159     1.3224     0.0093 C.2     
   2 C2             0.0021    -0.0041     0.0020 C.2     
   3 C3            -1.3526    -0.5604    -0.0848 C.2     
   4 C4            -2.3365     0.3819    -0.0772 C.2     
   5 S5            -1.6663     1.9416     0.0135 S.3     
   6 N6            -3.6899     0.1082    -0.1356 N.pl3   
   7 C7            -1.6225    -1.9971    -0.1724 C.2     
   8 N8            -1.6975    -2.5964    -1.3772 N.am    
   9 O9            -1.7792    -2.6500     0.8430 O.2     
  10 C10           -1.9675    -4.0337    -1.4649 C.3     
  11 C11           -2.0001    -4.4513    -2.9125 C.ar    
  12 C12           -0.8396    -4.8660    -3.5383 C.ar    
  13 C13           -0.8688    -5.2497    -4.8663 C.ar    
  14 C14           -2.0584    -5.2185    -5.5688 C.ar    
  15 C15           -3.2206    -4.8034    -4.9428 C.ar    
  16 C16           -3.1918    -4.4251    -3.6126 C.ar    
  17 C17            1.1954     2.2353     0.0026 C.3     
  18 C18            1.7521     2.2733    -1.4238 C.3     
  19 C19            2.0110     0.8368    -1.8893 C.3     
  20 C20            3.0685     0.2897    -0.9520 C.3     
  21 C21            2.5044    -0.2303     0.3583 C.3     
  22 C22            1.1820    -0.9585     0.1546 C.3     
  23 C23            0.7356     2.9388    -2.3538 C.3     
  24 Cl24          -4.7153    -4.7635    -5.8248 Cl      
  25 H25           -3.9972    -0.8104    -0.1864 H       
  26 H26           -4.3325     0.8347    -0.1258 H       
  27 H27           -1.5726    -2.0762    -2.1863 H       
  28 H28           -1.1822    -4.5832    -0.9458 H       
  29 H29           -2.9301    -4.2514    -1.0021 H       
  30 H30            0.0905    -4.8899    -2.9899 H       
  31 H31            0.0383    -5.5736    -5.3548 H       
  32 H32           -2.0810    -5.5176    -6.6063 H       
  33 H33           -4.0985    -4.1011    -3.1234 H       
  34 H34            0.9020     3.2389     0.3105 H       
  35 H35            1.9529     1.8472     0.6835 H       
  36 H36            2.6858     2.8356    -1.4369 H       
  37 H37            1.0982     0.2459    -1.8134 H       
  38 H38            2.3790     0.8338    -2.9153 H       
  39 H39            3.5929    -0.5235    -1.4537 H       
  40 H40            3.7851     1.0816    -0.7338 H       
  41 H41            3.2226    -0.9168     0.8067 H       
  42 H42            2.3471     0.6092     1.0355 H       
  43 H43            1.0015    -1.6069     1.0120 H       
  44 H44            1.2540    -1.5751    -0.7413 H       
  45 H45            0.5429     3.9560    -2.0129 H       
  46 H46            1.1338     2.9648    -3.3681 H       
  47 H47           -0.1939     2.3696    -2.3428 H       
@<TRIPOS>BOND
   1    1    2 2
   2    1   17 1
   3    1    5 1
   4    2    3 1
   5    2   22 1
   6    3    4 2
   7    3    7 1
   8    4    5 1
   9    4    6 1
  10    6   25 1
  11    6   26 1
  12    7    8 am
  13    7    9 2
  14    8   10 1
  15    8   27 1
  16   10   11 1
  17   10   28 1
  18   10   29 1
  19   11   12 ar
  20   11   16 ar
  21   12   13 ar
  22   12   30 1
  23   13   14 ar
  24   13   31 1
  25   14   15 ar
  26   14   32 1
  27   15   16 ar
  28   15   24 1
  29   16   33 1
  30   17   18 1
  31   17   34 1
  32   17   35 1
  33   18   19 1
  34   18   23 1
  35   18   36 1
  36   19   20 1
  37   19   37 1
  38   19   38 1
  39   20   21 1
  40   20   39 1
  41   20   40 1
  42   21   22 1
  43   21   41 1
  44   21   42 1
  45   22   43 1
  46   22   44 1
  47   23   45 1
  48   23   46 1
  49   23   47 1

#	End of record

