#	Name: ASD02560494
#	Creating user name:	WinNT
#	Creation time:	15. 06. 2019 20:25

#	Modifying user name:	WinNT
#	Modification time:	15. 06. 2019 20:25

#	Program:	/corina/corina34_cracker 3.40 0067  02.08.2006

@<TRIPOS>MOLECULE
ASD02560494
  46   49    0    0    0
SMALL
NO_CHARGES


@<TRIPOS>ATOM
   1 C1            -0.1596     1.9751    -0.2280 C.2     
   2 C2             0.0150     0.5792    -0.2015 C.2     
   3 C3            -1.0554    -0.2407    -0.1719 C.2     
   4 N4            -2.3256     0.2716    -0.1668 N.pl3   
   5 C5            -2.5268     1.6327    -0.1919 C.2     
   6 C6            -1.4135     2.4995    -0.2182 C.2     
   7 C7            -3.5572    -0.3214    -0.1394 C.2     
   8 C8            -4.4898     0.6946    -0.1484 C.2     
   9 N9            -3.8289     1.8663    -0.1804 N.2     
  10 C10           -5.9616     0.5256    -0.1265 C.ar    
  11 N11           -3.8201    -1.6914    -0.1083 N.3     
  12 C12           -2.5876    -2.4684    -0.2957 C.3     
  13 C13           -1.8847    -2.6426     1.0521 C.3     
  14 C14           -6.5741    -0.3880    -0.9834 C.ar    
  15 C15           -2.9337    -3.8428    -0.8718 C.3     
  16 C16           -1.6500    -4.6520    -1.0669 C.3     
  17 C17           -0.9471    -4.8263     0.2809 C.3     
  18 C18           -0.6010    -3.4518     0.8570 C.3     
  19 Br19           1.7594    -0.1509    -0.2079 Br      
  20 C20            1.0403     2.8862    -0.2610 C.3     
  21 C21           -7.9455    -0.5411    -0.9586 C.ar    
  22 C22           -8.7129     0.2097    -0.0864 C.ar    
  23 C23           -8.1119     1.1182     0.7668 C.ar    
  24 C24           -6.7403     1.2761     0.7560 C.ar    
  25 Cl25          -5.9873     2.4162     1.8269 Cl      
  26 H26           -0.9097    -1.3106    -0.1523 H       
  27 H27           -1.5567     3.5697    -0.2377 H       
  28 H28           -4.2845    -1.9511     0.7490 H       
  29 H29           -1.9271    -1.9415    -0.9844 H       
  30 H30           -1.6381    -1.6634     1.4626 H       
  31 H31           -2.5451    -3.1694     1.7409 H       
  32 H32           -5.9765    -0.9745    -1.6655 H       
  33 H33           -3.5941    -4.3696    -0.1830 H       
  34 H34           -3.4344    -3.7187    -1.8320 H       
  35 H35           -1.8966    -5.6312    -1.4774 H       
  36 H36           -0.9895    -4.1252    -1.7557 H       
  37 H37           -1.6075    -5.3531     0.9696 H       
  38 H38           -0.0325    -5.4028     0.1419 H       
  39 H39            0.0595    -2.9250     0.1682 H       
  40 H40           -0.1002    -3.5759     1.8172 H       
  41 H41            1.9512     2.2876    -0.2596 H       
  42 H42            1.0082     3.4968    -1.1634 H       
  43 H43            1.0294     3.5333     0.6160 H       
  44 H44           -8.4207    -1.2485    -1.6220 H       
  45 H45           -9.7858     0.0866    -0.0715 H       
  46 H46           -8.7163     1.7015     1.4455 H       
@<TRIPOS>BOND
   1    1    2 1
   2    1   20 1
   3    1    6 2
   4    2    3 2
   5    2   19 1
   6    3    4 1
   7    3   26 1
   8    4    5 1
   9    4    7 1
  10    5    6 1
  11    5    9 2
  12    6   27 1
  13    7    8 2
  14    7   11 1
  15    8    9 1
  16    8   10 1
  17   10   14 ar
  18   10   24 ar
  19   11   12 1
  20   11   28 1
  21   12   15 1
  22   12   13 1
  23   12   29 1
  24   13   18 1
  25   13   30 1
  26   13   31 1
  27   14   21 ar
  28   14   32 1
  29   15   16 1
  30   15   33 1
  31   15   34 1
  32   16   17 1
  33   16   35 1
  34   16   36 1
  35   17   18 1
  36   17   37 1
  37   17   38 1
  38   18   39 1
  39   18   40 1
  40   20   41 1
  41   20   42 1
  42   20   43 1
  43   21   22 ar
  44   21   44 1
  45   22   23 ar
  46   22   45 1
  47   23   24 ar
  48   23   46 1
  49   24   25 1

#	End of record

