#	Name: ASD00461015
#	Creating user name:	WinNT
#	Creation time:	15. 06. 2019 18:36

#	Modifying user name:	WinNT
#	Modification time:	15. 06. 2019 18:36

#	Program:	/corina/corina34_cracker 3.40 0067  02.08.2006

@<TRIPOS>MOLECULE
ASD00461015
  39   41    0    0    0
SMALL
NO_CHARGES


@<TRIPOS>ATOM
   1 C1             1.3663     1.3961     1.3147 C.ar    
   2 C2             1.1275     0.0424     1.4592 C.ar    
   3 C3             0.9333     2.0572     0.1803 C.ar    
   4 C4             0.4557    -0.6506     0.4694 C.ar    
   5 C5             1.1936     3.5331     0.0227 C.3     
   6 C6             0.2620     1.3643    -0.8095 C.ar    
   7 C7             0.1958    -2.1266     0.6267 C.3     
   8 C8             0.0220     0.0105    -0.6643 C.ar    
   9 C9             1.8429     4.0651     1.2743 C.2     
  10 C10           -0.2100     2.0849    -2.0460 C.3     
  11 S11            1.1087     5.1634     2.3606 S.3     
  12 N12            3.0258     3.7514     1.6771 N.2     
  13 C13            2.5435     5.1467     3.3655 C.2     
  14 C14            3.4558     4.3010     2.8026 C.2     
  15 C15            2.8127     5.9043     4.6399 C.3     
  16 C16            4.7654     4.0838     3.4815 C.2     
  17 C17            3.7415     5.0666     5.5208 C.3     
  18 C18            4.8779     4.4756     4.7431 C.2     
  19 O19           -0.0431     4.2140    -0.1987 O.3     
  20 C20            2.1228     3.7625    -1.1710 C.3     
  21 H21            1.8871     1.9384     2.0900 H       
  22 H22            1.4661    -0.4741     2.3452 H       
  23 H23           -0.7611    -2.2758     1.1269 H       
  24 H24            0.1695    -2.5977    -0.3559 H       
  25 H25            0.9911    -2.5740     1.2229 H       
  26 H26           -0.5028    -0.5309    -1.4375 H       
  27 H27            0.5402     1.9890    -2.8310 H       
  28 H28           -1.1489     1.6474    -2.3854 H       
  29 H29           -0.3626     3.1393    -1.8161 H       
  30 H30            3.2905     6.8557     4.4058 H       
  31 H31            1.8741     6.0830     5.1644 H       
  32 H32            5.5935     3.6230     2.9637 H       
  33 H33            4.1448     5.6990     6.3117 H       
  34 H34            3.1664     4.2593     5.9742 H       
  35 H35            5.8330     4.3609     5.2341 H       
  36 H36           -0.6823     4.1121     0.5198 H       
  37 H37            1.6786     3.3273    -2.0662 H       
  38 H38            2.2657     4.8328    -1.3198 H       
  39 H39            3.0862     3.2908    -0.9774 H       
@<TRIPOS>BOND
   1    1    2 ar
   2    1    3 ar
   3    1   21 1
   4    2    4 ar
   5    2   22 1
   6    3    5 1
   7    3    6 ar
   8    4    7 1
   9    4    8 ar
  10    5    9 1
  11    5   19 1
  12    5   20 1
  13    6   10 1
  14    6    8 ar
  15    7   23 1
  16    7   24 1
  17    7   25 1
  18    8   26 1
  19    9   11 1
  20    9   12 2
  21   10   27 1
  22   10   28 1
  23   10   29 1
  24   11   13 1
  25   12   14 1
  26   13   14 2
  27   13   15 1
  28   14   16 1
  29   15   17 1
  30   15   30 1
  31   15   31 1
  32   16   18 2
  33   16   32 1
  34   17   18 1
  35   17   33 1
  36   17   34 1
  37   18   35 1
  38   19   36 1
  39   20   37 1
  40   20   38 1
  41   20   39 1

#	End of record

