#	Name: ASD00170312
#	Creating user name:	WinNT
#	Creation time:	15. 06. 2019 18:31

#	Modifying user name:	WinNT
#	Modification time:	15. 06. 2019 18:31

#	Program:	/corina/corina34_cracker 3.40 0067  02.08.2006

@<TRIPOS>MOLECULE
ASD00170312
  35   37    0    0    0
SMALL
NO_CHARGES


@<TRIPOS>ATOM
   1 S1             0.1576     1.6244     0.6733 S.3     
   2 N2            -0.1177     0.3146    -0.3759 N.pl3   
   3 C3             1.1098    -0.1395    -0.7264 C.2     
   4 N4             2.1489     0.4587    -0.2381 N.2     
   5 C5             1.9247     1.4945     0.5872 C.2     
   6 N6             2.8187     2.2471     1.1970 N.2     
   7 C7            -1.3530    -0.1891    -0.7898 C.ar    
   8 C8             1.2588    -1.2895    -1.6430 C.ar    
   9 C9            -2.2266     0.6155    -1.5112 C.ar    
  10 C10           -3.4469     0.1146    -1.9194 C.ar    
  11 C11           -3.8005    -1.1874    -1.6103 C.ar    
  12 C12           -2.9325    -1.9912    -0.8919 C.ar    
  13 C13           -1.7085    -1.4977    -0.4859 C.ar    
  14 C14            0.2898    -1.5402    -2.6160 C.ar    
  15 C15            0.4344    -2.6144    -3.4687 C.ar    
  16 C16            1.5382    -3.4439    -3.3608 C.ar    
  17 C17            2.5030    -3.2003    -2.3974 C.ar    
  18 C18            2.3720    -2.1258    -1.5428 C.ar    
  19 C19            4.2478     1.9887     1.0042 C.3     
  20 C20            4.8891     3.1787     0.2876 C.3     
  21 Cl21          -5.3360    -1.8132    -2.1243 Cl      
  22 Cl22           1.7130    -4.7948    -4.4370 Cl      
  23 H23           -1.9515     1.6317    -1.7521 H       
  24 H24           -4.1262     0.7394    -2.4802 H       
  25 H25           -3.2113    -3.0066    -0.6519 H       
  26 H26           -1.0314    -2.1255     0.0743 H       
  27 H27           -0.5717    -0.8944    -2.7006 H       
  28 H28           -0.3146    -2.8093    -4.2219 H       
  29 H29            3.3616    -3.8506    -2.3180 H       
  30 H30            3.1251    -1.9365    -0.7922 H       
  31 H31            4.7256     1.8478     1.9737 H       
  32 H32            4.3764     1.0894     0.4017 H       
  33 H33            5.9524     2.9864     0.1441 H       
  34 H34            4.4113     3.3195    -0.6819 H       
  35 H35            4.7606     4.0779     0.8901 H       
@<TRIPOS>BOND
   1    1    2 1
   2    1    5 1
   3    2    3 1
   4    2    7 1
   5    3    4 2
   6    3    8 1
   7    4    5 1
   8    5    6 2
   9    6   19 1
  10    7    9 ar
  11    7   13 ar
  12    8   14 ar
  13    8   18 ar
  14    9   10 ar
  15    9   23 1
  16   10   11 ar
  17   10   24 1
  18   11   12 ar
  19   11   21 1
  20   12   13 ar
  21   12   25 1
  22   13   26 1
  23   14   15 ar
  24   14   27 1
  25   15   16 ar
  26   15   28 1
  27   16   17 ar
  28   16   22 1
  29   17   18 ar
  30   17   29 1
  31   18   30 1
  32   19   20 1
  33   19   31 1
  34   19   32 1
  35   20   33 1
  36   20   34 1
  37   20   35 1

#	End of record

