#	Name: ASD05730136
#	Creating user name:	WinNT
#	Creation time:	15. 06. 2019 21:02

#	Modifying user name:	WinNT
#	Modification time:	15. 06. 2019 21:02

#	Program:	/corina/corina34_cracker 3.40 0067  02.08.2006

@<TRIPOS>MOLECULE
ASD05730136
  81   86    0    0    0
SMALL
NO_CHARGES


@<TRIPOS>ATOM
   1 N1            -0.0910     1.4031    -0.0121 N.3     
   2 C2            -0.0571     0.0024    -0.0144 C.ar    
   3 C3             0.9946    -0.6653    -0.6255 C.ar    
   4 C4             1.0282    -2.0465    -0.6279 C.ar    
   5 C5             0.0100    -2.7675    -0.0191 C.ar    
   6 C6            -1.0433    -2.1006     0.5935 C.ar    
   7 C7            -1.0749    -0.7190     0.6009 C.ar    
   8 N8             0.0446    -4.1677    -0.0230 N.pl3   
   9 C9            -0.4391    -4.8737     1.0618 C.ar    
  10 N10           -0.4994    -6.1945     0.9878 N.ar    
  11 C11           -0.9582    -6.9074     2.0104 C.ar    
  12 C12           -1.3789    -6.2295     3.1748 C.ar    
  13 C13           -1.2951    -4.8296     3.2037 C.ar    
  14 N14           -0.8215    -4.2030     2.1428 N.ar    
  15 N15           -1.0247    -8.2764     1.9423 N.am    
  16 C16           -1.4911    -8.9941     2.9822 C.2     
  17 C17           -1.9357    -8.3218     4.2050 C.2     
  18 C18           -1.8723    -6.9570     4.2826 C.2     
  19 C19           -0.5844    -8.9641     0.7260 C.3     
  20 O20           -1.5439   -10.2087     2.9050 O.2     
  21 C21           -2.4487    -9.1128     5.3489 C.2     
  22 C22            1.0901     1.9573     0.6643 C.3     
  23 C23            0.9052    -9.2951     0.8381 C.3     
  24 C24            1.3390   -10.1227    -0.3756 C.3     
  25 C25           -2.2744    -8.8243     6.6661 C.2     
  26 N26           -2.9094    -9.8099     7.3708 N.am    
  27 C27           -3.4487   -10.6648     6.4744 C.2     
  28 N28           -3.1775   -10.2450     5.2703 N.2     
  29 S29           -3.0003    -9.9326     9.0197 S.o2    
  30 C30           -1.2859   -10.1999     9.5489 C.3     
  31 C31           -1.2516   -10.4547    11.0572 C.3     
  32 O32           -3.4589    -8.6554     9.4414 O.2     
  33 O33           -3.7786   -11.1005     9.2419 O.2     
  34 C34           -1.3289     1.8990     0.6053 C.3     
  35 C35           -1.5267    -7.6477     7.2384 C.3     
  36 C36           -0.7083   -11.4111     8.8138 C.3     
  37 F37           -2.0989    -0.0695     1.1964 F       
  38 C38           -1.3636     3.4265     0.5169 C.3     
  39 N39           -0.1825     3.9807     1.1932 N.3     
  40 C40            1.0555     3.4848     0.5758 C.3     
  41 C41            2.8456   -10.3819    -0.2947 C.3     
  42 O42            3.5396    -9.1343    -0.2335 O.3     
  43 C43            3.2094    -8.3381     0.9063 C.3     
  44 C44            1.7173    -7.9968     0.8736 C.3     
  45 H45            1.7869    -0.1052    -1.0996 H       
  46 H46            1.8469    -2.5656    -1.1040 H       
  47 H47           -1.8354    -2.6616     1.0670 H       
  48 H48            0.4081    -4.6418    -0.7872 H       
  49 H49           -1.6076    -4.2764     4.0770 H       
  50 H50           -2.1951    -6.4432     5.1760 H       
  51 H51           -1.1532    -9.8858     0.6036 H       
  52 H52           -0.7491    -8.3182    -0.1365 H       
  53 H53            1.0857     1.6534     1.7111 H       
  54 H54            1.9937     1.5854     0.1812 H       
  55 H55            1.0846    -9.8640     1.7504 H       
  56 H56            0.8054   -11.0732    -0.3779 H       
  57 H57            1.1123    -9.5746    -1.2901 H       
  58 H58           -4.0164   -11.5511     6.7164 H       
  59 H59           -0.6918    -9.3163     9.3161 H       
  60 H60           -1.8457   -11.3384    11.2900 H       
  61 H61           -0.2215   -10.6154    11.3752 H       
  62 H62           -1.6631    -9.5919    11.5809 H       
  63 H63           -2.1889     1.4846     0.0792 H       
  64 H64           -1.3608     1.5945     1.6515 H       
  65 H65           -2.2275    -6.8405     7.4514 H       
  66 H66           -1.0273    -7.9479     8.1596 H       
  67 H67           -0.7843    -7.3038     6.5182 H       
  68 H68           -0.7327   -11.2295     7.7393 H       
  69 H69            0.3219   -11.5717     9.1318 H       
  70 H70           -1.3024   -12.2948     9.0466 H       
  71 H71           -1.3591     3.7303    -0.5299 H       
  72 H72           -2.2672     3.7983     0.9999 H       
  73 H73           -0.2068     4.9894     1.1949 H       
  74 H74            1.9155     3.8992     1.1019 H       
  75 H75            1.0874     3.7893    -0.4703 H       
  76 H76            3.0666   -10.9650     0.5994 H       
  77 H77            3.1674   -10.9340    -1.1777 H       
  78 H78            3.4351    -8.8945     1.8160 H       
  79 H79            3.7933    -7.4179     0.8885 H       
  80 H80            1.4983    -7.4057    -0.0157 H       
  81 H81            1.4544    -7.4269     1.7647 H       
@<TRIPOS>BOND
   1    1    2 1
   2    1   22 1
   3    1   34 1
   4    2    3 ar
   5    2    7 ar
   6    3    4 ar
   7    3   45 1
   8    4    5 ar
   9    4   46 1
  10    5    6 ar
  11    5    8 1
  12    6    7 ar
  13    6   47 1
  14    7   37 1
  15    8    9 1
  16    8   48 1
  17    9   10 ar
  18    9   14 ar
  19   10   11 ar
  20   11   12 ar
  21   11   15 1
  22   12   13 ar
  23   12   18 1
  24   13   14 ar
  25   13   49 1
  26   15   16 am
  27   15   19 1
  28   16   17 1
  29   16   20 2
  30   17   18 2
  31   17   21 1
  32   18   50 1
  33   19   23 1
  34   19   51 1
  35   19   52 1
  36   21   25 2
  37   21   28 1
  38   22   40 1
  39   22   53 1
  40   22   54 1
  41   23   24 1
  42   23   44 1
  43   23   55 1
  44   24   41 1
  45   24   56 1
  46   24   57 1
  47   25   26 1
  48   25   35 1
  49   26   27 1
  50   26   29 am
  51   27   28 2
  52   27   58 1
  53   29   30 1
  54   29   32 2
  55   29   33 2
  56   30   31 1
  57   30   36 1
  58   30   59 1
  59   31   60 1
  60   31   61 1
  61   31   62 1
  62   34   38 1
  63   34   63 1
  64   34   64 1
  65   35   65 1
  66   35   66 1
  67   35   67 1
  68   36   68 1
  69   36   69 1
  70   36   70 1
  71   38   39 1
  72   38   71 1
  73   38   72 1
  74   39   40 1
  75   39   73 1
  76   40   74 1
  77   40   75 1
  78   41   42 1
  79   41   76 1
  80   41   77 1
  81   42   43 1
  82   43   44 1
  83   43   78 1
  84   43   79 1
  85   44   80 1
  86   44   81 1

#	End of record

