#	Name: ASD02500305
#	Creating user name:	WinNT
#	Creation time:	15. 06. 2019 20:22

#	Modifying user name:	WinNT
#	Modification time:	15. 06. 2019 20:22

#	Program:	/corina/corina34_cracker 3.40 0067  02.08.2006

@<TRIPOS>MOLECULE
ASD02500305
  65   69    0    0    0
SMALL
NO_CHARGES


@<TRIPOS>ATOM
   1 N1             0.0920     2.0831    -3.6988 N.ar    
   2 C2            -0.0661     0.9735    -4.3785 C.ar    
   3 C3             0.0151     0.9477    -5.7693 C.ar    
   4 C4             0.2650     2.0997    -6.4590 C.ar    
   5 C5             0.4338     3.2895    -5.7257 C.ar    
   6 C6             0.6938     4.5119    -6.3653 C.ar    
   7 C7             0.8514     5.6409    -5.6205 C.ar    
   8 C8             0.7585     5.5994    -4.2310 C.ar    
   9 C9             0.5076     4.4316    -3.5785 C.ar    
  10 C10            0.3389     3.2448    -4.3125 C.ar    
  11 S11            0.3957     4.4074    -1.8202 S.o2    
  12 O12            1.1509     3.2849    -1.3855 O.2     
  13 O13            0.6546     5.7346    -1.3834 O.2     
  14 N14           -1.1824     4.0874    -1.4337 N.am    
  15 C15           -1.7521     2.8698    -1.7892 C.ar    
  16 C16           -1.4197     1.7156    -1.0854 C.ar    
  17 C17           -1.9817     0.5091    -1.4348 C.ar    
  18 C18           -2.8874     0.4433    -2.4977 C.ar    
  19 C19           -3.2192     1.6041    -3.2024 C.ar    
  20 C20           -2.6581     2.8085    -2.8445 C.ar    
  21 C21           -3.4915    -0.8486    -2.8751 C.2     
  22 O22           -4.6343    -0.8877    -3.2885 O.2     
  23 N23           -2.7766    -1.9855    -2.7618 N.am    
  24 C24           -1.4297    -1.9957    -2.1353 C.3     
  25 C25           -1.5339    -2.4584    -0.7559 C.3     
  26 N26           -2.2307    -3.7699    -0.7204 N.am    
  27 C27           -3.6493    -3.7506    -0.8010 C.3     
  28 C28           -4.2232    -3.9730    -2.2385 C.3     
  29 C29           -3.2803    -3.2287    -3.2310 C.3     
  30 C30           -1.5475    -4.9271    -0.6168 C.2     
  31 C31           -2.2761    -6.2053    -0.4721 C.ar    
  32 C32           -3.2153    -6.3775     0.5521 C.ar    
  33 C33           -3.8702    -7.5927     0.6437 C.ar    
  34 C34           -3.5792    -8.5894    -0.2708 C.ar    
  35 N35           -2.6889    -8.3989    -1.2255 N.ar    
  36 C36           -2.0438    -7.2583    -1.3574 C.ar    
  37 O37           -0.3322    -4.9197    -0.6423 O.2     
  38 C38           -1.0413    -7.0915    -2.4701 C.3     
  39 H39           -0.2643     0.0548    -3.8464 H       
  40 H40           -0.1190     0.0175    -6.3014 H       
  41 H41            0.3316     2.0979    -7.5369 H       
  42 H42            0.7688     4.5565    -7.4418 H       
  43 H43            1.0513     6.5809    -6.1133 H       
  44 H44            0.8880     6.5085    -3.6625 H       
  45 H45           -1.7094     4.7494    -0.9594 H       
  46 H46           -0.7196     1.7670    -0.2647 H       
  47 H47           -1.7232    -0.3861    -0.8887 H       
  48 H48           -3.9183     1.5564    -4.0242 H       
  49 H49           -2.9176     3.7065    -3.3855 H       
  50 H50           -0.7747    -2.6644    -2.6938 H       
  51 H51           -1.0153    -0.9876    -2.1494 H       
  52 H52           -0.5351    -2.5667    -0.3330 H       
  53 H53           -2.0981    -1.7319    -0.1711 H       
  54 H54           -4.0427    -4.5298    -0.1481 H       
  55 H55           -4.0027    -2.7872    -0.4337 H       
  56 H56           -4.2414    -5.0380    -2.4700 H       
  57 H57           -5.2303    -3.5611    -2.3037 H       
  58 H58           -3.8317    -3.0511    -4.1543 H       
  59 H59           -2.4359    -3.8796    -3.4577 H       
  60 H60           -3.4227    -5.5822     1.2528 H       
  61 H61           -4.6007    -7.7617     1.4210 H       
  62 H62           -4.0890    -9.5390    -0.2016 H       
  63 H63           -0.0756    -7.4838    -2.1510 H       
  64 H64           -1.3817    -7.6363    -3.3507 H       
  65 H65           -0.9413    -6.0337    -2.7135 H       
@<TRIPOS>BOND
   1    1    2 ar
   2    1   10 ar
   3    2    3 ar
   4    2   39 1
   5    3    4 ar
   6    3   40 1
   7    4    5 ar
   8    4   41 1
   9    5    6 ar
  10    5   10 ar
  11    6    7 ar
  12    6   42 1
  13    7    8 ar
  14    7   43 1
  15    8    9 ar
  16    8   44 1
  17    9   10 ar
  18    9   11 1
  19   11   12 2
  20   11   13 2
  21   11   14 am
  22   14   15 1
  23   14   45 1
  24   15   16 ar
  25   15   20 ar
  26   16   17 ar
  27   16   46 1
  28   17   18 ar
  29   17   47 1
  30   18   19 ar
  31   18   21 1
  32   19   20 ar
  33   19   48 1
  34   20   49 1
  35   21   22 2
  36   21   23 am
  37   23   24 1
  38   23   29 1
  39   24   25 1
  40   24   50 1
  41   24   51 1
  42   25   26 1
  43   25   52 1
  44   25   53 1
  45   26   27 1
  46   26   30 am
  47   27   28 1
  48   27   54 1
  49   27   55 1
  50   28   29 1
  51   28   56 1
  52   28   57 1
  53   29   58 1
  54   29   59 1
  55   30   31 1
  56   30   37 2
  57   31   32 ar
  58   31   36 ar
  59   32   33 ar
  60   32   60 1
  61   33   34 ar
  62   33   61 1
  63   34   35 ar
  64   34   62 1
  65   35   36 ar
  66   36   38 1
  67   38   63 1
  68   38   64 1
  69   38   65 1

#	End of record

