#	Name: ASD01913934
#	Creating user name:	WinNT
#	Creation time:	15. 06. 2019 20:02

#	Modifying user name:	WinNT
#	Modification time:	15. 06. 2019 20:02

#	Program:	/corina/corina34_cracker 3.40 0067  02.08.2006

@<TRIPOS>MOLECULE
ASD01913934
  39   41    0    0    0
SMALL
NO_CHARGES


@<TRIPOS>ATOM
   1 C1            -0.0163     1.4277     0.0218 C.ar    
   2 C2             0.0032    -0.0041     0.0138 C.1     
   3 C3             0.0192    -1.1780     0.0072 C.1     
   4 C4             0.0387    -2.6098    -0.0008 C.ar    
   5 N5            -1.0798    -3.2944     0.2396 N.ar    
   6 C6             0.1297    -5.2904    -0.0285 C.ar    
   7 N7             1.2441    -4.6118    -0.2735 N.ar    
   8 C8             1.2294    -3.2926    -0.2664 C.ar    
   9 C9            -1.0592    -4.6123     0.2312 C.ar    
  10 C10           -1.2058     2.1121     0.2871 C.ar    
  11 C11           -0.0571     4.1987     0.0379 C.ar    
  12 N12            0.1480    -6.6834    -0.0367 N.am    
  13 C13            1.1547     2.1468    -0.2299 C.ar    
  14 C14           -1.2184     3.4911     0.2934 C.ar    
  15 C15           -0.9517    -7.4564    -0.0304 C.2     
  16 C16           -0.5604    -8.9178    -0.0324 C.3     
  17 C17            0.9302    -8.9118     0.3787 C.3     
  18 C18            1.3703    -7.4954    -0.0596 C.3     
  19 C19            1.0821    -9.0953     1.8900 C.3     
  20 C20            1.7124    -9.9841    -0.3823 C.3     
  21 O21           -2.0916    -7.0426    -0.0236 O.2     
  22 C22            1.1278     3.5282    -0.2205 C.ar    
  23 F23            2.2586     4.2263    -0.4635 F       
  24 H24            2.1361    -2.7408    -0.4659 H       
  25 H25           -1.9651    -5.1671     0.4262 H       
  26 H26           -2.1135     1.5620     0.4865 H       
  27 H27           -0.0734     5.2786     0.0438 H       
  28 H28            2.0784     1.6245    -0.4309 H       
  29 H29           -2.1383     4.0202     0.4939 H       
  30 H30           -1.1542    -9.4727     0.6939 H       
  31 H31           -0.6796    -9.3432    -1.0288 H       
  32 H32            1.7918    -7.5253    -1.0643 H       
  33 H33            2.0988    -7.0922     0.6439 H       
  34 H34            0.6644   -10.0585     2.1829 H       
  35 H35            2.1387    -9.0615     2.1558 H       
  36 H36            0.5515    -8.2965     2.4082 H       
  37 H37            1.6228    -9.8073    -1.4541 H       
  38 H38            2.7626    -9.9414    -0.0936 H       
  39 H39            1.3091   -10.9677    -0.1414 H       
@<TRIPOS>BOND
   1    1    2 1
   2    1   13 ar
   3    1   10 ar
   4    2    3 3
   5    3    4 1
   6    4    5 ar
   7    4    8 ar
   8    5    9 ar
   9    6    7 ar
  10    6   12 1
  11    6    9 ar
  12    7    8 ar
  13    8   24 1
  14    9   25 1
  15   10   14 ar
  16   10   26 1
  17   11   14 ar
  18   11   22 ar
  19   11   27 1
  20   12   15 am
  21   12   18 1
  22   13   22 ar
  23   13   28 1
  24   14   29 1
  25   15   16 1
  26   15   21 2
  27   16   17 1
  28   16   30 1
  29   16   31 1
  30   17   18 1
  31   17   19 1
  32   17   20 1
  33   18   32 1
  34   18   33 1
  35   19   34 1
  36   19   35 1
  37   19   36 1
  38   20   37 1
  39   20   38 1
  40   20   39 1
  41   22   23 1

#	End of record

