#	Name: ASD07931821
#	Creating user name:	WinNT
#	Creation time:	15. 06. 2019 21:13

#	Modifying user name:	WinNT
#	Modification time:	15. 06. 2019 21:13

#	Program:	/corina/corina34_cracker 3.40 0067  02.08.2006

@<TRIPOS>MOLECULE
ASD07931821
  60   64    0    0    0
SMALL
NO_CHARGES


@<TRIPOS>ATOM
   1 C1             2.1004     1.4885     0.8873 C.2     
   2 C2             2.1925     0.0130     0.8256 C.2     
   3 N3             0.8620     2.0651     1.0571 N.am    
   4 N4             1.0856    -0.6926     0.4913 N.am    
   5 C5            -0.1485     0.0383     0.1701 C.3     
   6 C6            -0.3102     1.1876     1.1762 C.3     
   7 C7             3.2210     2.2538     0.7833 C.2     
   8 C8             3.1386     3.6506     0.8391 C.2     
   9 C9             1.9180     4.2475     0.9988 C.2     
  10 C10            0.7276     3.4015     1.1140 C.2     
  11 O11            3.2399    -0.5542     1.0696 O.2     
  12 O12           -0.3736     3.9041     1.2601 O.2     
  13 C13            1.1759     6.4391     0.1586 C.2     
  14 N14            1.2891     7.6780     0.5528 N.2     
  15 C15            1.9868     7.7184     1.6979 C.2     
  16 C16            2.3218     6.4576     2.0312 C.2     
  17 N17            1.8094     5.6398     1.0569 N.pl3   
  18 C18            2.3359     8.9606     2.4766 C.3     
  19 C19            1.1178    -2.1567     0.4512 C.3     
  20 C20            0.0347    -2.7161     1.3758 C.3     
  21 O21           -0.4833    -2.3104    -1.3911 O.3     
  22 C22            0.8625    -2.6333    -0.9801 C.3     
  23 C23            1.7452    -1.8473    -1.9827 C.3     
  24 C24            0.9362    -1.9750    -3.2964 C.3     
  25 C25           -0.4939    -2.3076    -2.8285 C.3     
  26 C26           -1.4541    -1.2608    -3.3318 C.ar    
  27 C27           -1.9552    -1.3446    -4.6176 C.ar    
  28 C28           -2.8360    -0.3858    -5.0815 C.ar    
  29 C29           -3.2174     0.6596    -4.2585 C.ar    
  30 C30           -2.7149     0.7436    -2.9690 C.ar    
  31 C31           -1.8374    -0.2212    -2.5056 C.ar    
  32 C32           -1.5402    -2.4823    -5.5146 C.3     
  33 F33           -2.1729    -2.3525    -6.7555 F       
  34 F34           -0.1529    -2.4531    -5.6932 F       
  35 F35           -1.9093    -3.6974    -4.9277 F       
  36 F36           -3.0857     1.7632    -2.1638 F       
  37 F37           -4.0780     1.5975    -4.7113 F       
  38 H38           -0.0824     0.4425    -0.8400 H       
  39 H39           -1.0025    -0.6351     0.2430 H       
  40 H40           -0.3683     0.7859     2.1879 H       
  41 H41           -1.2160     1.7502     0.9501 H       
  42 H42            4.1829     1.7793     0.6569 H       
  43 H43            4.0318     4.2521     0.7572 H       
  44 H44            0.6612     6.1046    -0.7299 H       
  45 H45            2.8858     6.1495     2.8992 H       
  46 H46            1.5474     9.1697     3.1995 H       
  47 H47            3.2788     8.8074     3.0014 H       
  48 H48            2.4338     9.8030     1.7919 H       
  49 H49            2.0951    -2.5078     0.7823 H       
  50 H50           -0.9426    -2.3649     1.0448 H       
  51 H51            0.0586    -3.8054     1.3460 H       
  52 H52            0.2165    -2.3765     2.3955 H       
  53 H53            1.0438    -3.7046    -1.0670 H       
  54 H54            1.8386    -0.8034    -1.6834 H       
  55 H55            2.7265    -2.3109    -2.0836 H       
  56 H56            0.9487    -1.0334    -3.8453 H       
  57 H57            1.3335    -2.7819    -3.9122 H       
  58 H58           -0.7860    -3.2902    -3.1990 H       
  59 H59           -3.2265    -0.4522    -6.0863 H       
  60 H60           -1.4489    -0.1595    -1.4997 H       
@<TRIPOS>BOND
   1    1    2 1
   2    1    3 1
   3    1    7 2
   4    2    4 am
   5    2   11 2
   6    3    6 1
   7    3   10 am
   8    4    5 1
   9    4   19 1
  10    5    6 1
  11    5   38 1
  12    5   39 1
  13    6   40 1
  14    6   41 1
  15    7    8 1
  16    7   42 1
  17    8    9 2
  18    8   43 1
  19    9   10 1
  20    9   17 1
  21   10   12 2
  22   13   14 2
  23   13   17 1
  24   13   44 1
  25   14   15 1
  26   15   16 2
  27   15   18 1
  28   16   17 1
  29   16   45 1
  30   18   46 1
  31   18   47 1
  32   18   48 1
  33   19   20 1
  34   19   22 1
  35   19   49 1
  36   20   50 1
  37   20   51 1
  38   20   52 1
  39   21   25 1
  40   21   22 1
  41   22   23 1
  42   22   53 1
  43   23   24 1
  44   23   54 1
  45   23   55 1
  46   24   25 1
  47   24   56 1
  48   24   57 1
  49   25   26 1
  50   25   58 1
  51   26   27 ar
  52   26   31 ar
  53   27   28 ar
  54   27   32 1
  55   28   29 ar
  56   28   59 1
  57   29   30 ar
  58   29   37 1
  59   30   31 ar
  60   30   36 1
  61   31   60 1
  62   32   33 1
  63   32   34 1
  64   32   35 1

#	End of record

