#	Name: ASD01180124
#	Creating user name:	WinNT
#	Creation time:	15. 06. 2019 19:06

#	Modifying user name:	WinNT
#	Modification time:	15. 06. 2019 19:06

#	Program:	/corina/corina34_cracker 3.40 0067  02.08.2006

@<TRIPOS>MOLECULE
ASD01180124
  43   43    0    0    0
SMALL
NO_CHARGES


@<TRIPOS>ATOM
   1 C1            -1.3287     1.4262     0.3817 C.2     
   2 C2            -1.0985    -0.0279     0.2600 C.ar    
   3 C3             0.1980    -0.5220     0.1039 C.ar    
   4 C4             0.4059    -1.8811    -0.0086 C.ar    
   5 C5            -0.6669    -2.7540     0.0324 C.ar    
   6 C6            -1.9544    -2.2710     0.1864 C.ar    
   7 C7            -2.1760    -0.9148     0.3064 C.ar    
   8 O8            -0.3889     2.1950     0.3461 O.2     
   9 O9            -2.5814     1.9001     0.5266 O.3     
  10 C10           -0.4321    -4.2374    -0.0917 C.3     
  11 C11           -0.4661    -4.8771     1.2977 C.3     
  12 C12           -0.0861    -6.3551     1.1881 C.3     
  13 C13            1.3830    -6.4749     0.7778 C.3     
  14 O14           -1.4538    -4.8148    -0.9071 O.3     
  15 S15           -1.0793    -4.9330    -2.3775 S.o2    
  16 O16           -2.3061    -5.2340    -3.0285 O.2     
  17 O17           -0.3770    -3.7299    -2.6581 O.2     
  18 C18            0.0434    -6.3562    -2.4458 C.3     
  19 C19           -0.2947    -7.0371     2.5417 C.3     
  20 C20           -2.7326     3.3397     0.6402 C.3     
  21 C21           -4.2146     3.6861     0.7968 C.3     
  22 H22            1.0362     0.1583     0.0710 H       
  23 H23            1.4082    -2.2646    -0.1294 H       
  24 H24           -2.7874    -2.9578     0.2169 H       
  25 H25           -3.1809    -0.5395     0.4314 H       
  26 H26            0.5412    -4.4141    -0.5494 H       
  27 H27            0.2429    -4.3671     1.9500 H       
  28 H28           -1.4699    -4.7899     1.7134 H       
  29 H29           -0.7133    -6.8368     0.4380 H       
  30 H30            2.0165    -6.0989     1.5811 H       
  31 H31            1.6224    -7.5208     0.5855 H       
  32 H32            1.5567    -5.8904    -0.1257 H       
  33 H33           -0.4715    -7.2431    -2.0766 H       
  34 H34            0.3585    -6.5213    -3.4761 H       
  35 H35            0.9179    -6.1592    -1.8255 H       
  36 H36           -1.3553    -7.0289     2.7930 H       
  37 H37            0.0579    -8.0670     2.4878 H       
  38 H38            0.2645    -6.5012     3.3086 H       
  39 H39           -2.1824     3.6952     1.5114 H       
  40 H40           -2.3405     3.8182    -0.2572 H       
  41 H41           -4.7648     3.3306    -0.0745 H       
  42 H42           -4.6068     3.2076     1.6942 H       
  43 H43           -4.3281     4.7668     0.8820 H       
@<TRIPOS>BOND
   1    1    2 1
   2    1    8 2
   3    1    9 1
   4    2    3 ar
   5    2    7 ar
   6    3    4 ar
   7    3   22 1
   8    4    5 ar
   9    4   23 1
  10    5    6 ar
  11    5   10 1
  12    6    7 ar
  13    6   24 1
  14    7   25 1
  15    9   20 1
  16   10   11 1
  17   10   14 1
  18   10   26 1
  19   11   12 1
  20   11   27 1
  21   11   28 1
  22   12   13 1
  23   12   19 1
  24   12   29 1
  25   13   30 1
  26   13   31 1
  27   13   32 1
  28   14   15 1
  29   15   16 2
  30   15   17 2
  31   15   18 1
  32   18   33 1
  33   18   34 1
  34   18   35 1
  35   19   36 1
  36   19   37 1
  37   19   38 1
  38   20   21 1
  39   20   39 1
  40   20   40 1
  41   21   41 1
  42   21   42 1
  43   21   43 1

#	End of record

