#	Name: ASD03731823
#	Creating user name:	WinNT
#	Creation time:	15. 06. 2019 20:46

#	Modifying user name:	WinNT
#	Modification time:	15. 06. 2019 20:46

#	Program:	/corina/corina34_cracker 3.40 0067  02.08.2006

@<TRIPOS>MOLECULE
ASD03731823
  34   35    0    0    0
SMALL
NO_CHARGES


@<TRIPOS>ATOM
   1 C1            -0.4040     1.1048    -1.9607 C.2     
   2 C2            -0.2823    -0.2733    -1.4505 C.ar    
   3 C3             0.9016    -0.9938    -1.6492 C.ar    
   4 C4             1.0101    -2.2835    -1.1695 C.ar    
   5 C5            -0.0529    -2.8655    -0.4915 C.ar    
   6 C6            -1.2312    -2.1522    -0.2922 C.ar    
   7 C7            -1.3466    -0.8626    -0.7618 C.ar    
   8 O8             0.5248     1.6172    -2.5552 O.2     
   9 N9            -1.5467     1.7944    -1.7730 N.am    
  10 S10           -1.6834     3.3421    -2.3461 S.o2    
  11 O11           -2.9855     3.7492    -1.9486 O.2     
  12 O12           -0.5264     4.0023    -1.8514 O.2     
  13 C13           -1.5940     3.1666    -4.1494 C.3     
  14 F14            1.9355    -0.4280    -2.3096 F       
  15 O15            0.0574    -4.1342    -0.0222 O.3     
  16 C16            1.2582    -4.7558    -0.1419 C.ar    
  17 C17            2.2091    -4.6259     0.8635 C.ar    
  18 C18            3.4285    -5.2553     0.7462 C.ar    
  19 C19            3.7091    -6.0254    -0.3858 C.ar    
  20 C20            2.7502    -6.1534    -1.3944 C.ar    
  21 C21            1.5313    -5.5250    -1.2668 C.ar    
  22 C22            4.9759    -6.6811    -0.5121 C.1     
  23 N23            5.9808    -7.2013    -0.6122 N.1     
  24 Cl24          -2.5557    -2.8871     0.5558 Cl      
  25 H25            1.9226    -2.8407    -1.3219 H       
  26 H26           -2.2600    -0.3088    -0.6020 H       
  27 H27           -2.2890     1.3842    -1.3023 H       
  28 H28           -2.4105     2.5317    -4.4935 H       
  29 H29           -1.6768     4.1489    -4.6145 H       
  30 H30           -0.6412     2.7138    -4.4236 H       
  31 H31            1.9915    -4.0303     1.7377 H       
  32 H32            4.1669    -5.1535     1.5277 H       
  33 H33            2.9633    -6.7473    -2.2709 H       
  34 H34            0.7882    -5.6268    -2.0439 H       
@<TRIPOS>BOND
   1    1    2 1
   2    1    8 2
   3    1    9 am
   4    2    3 ar
   5    2    7 ar
   6    3    4 ar
   7    3   14 1
   8    4    5 ar
   9    4   25 1
  10    5    6 ar
  11    5   15 1
  12    6    7 ar
  13    6   24 1
  14    7   26 1
  15    9   10 am
  16    9   27 1
  17   10   11 2
  18   10   12 2
  19   10   13 1
  20   13   28 1
  21   13   29 1
  22   13   30 1
  23   15   16 1
  24   16   17 ar
  25   16   21 ar
  26   17   18 ar
  27   17   31 1
  28   18   19 ar
  29   18   32 1
  30   19   20 ar
  31   19   22 1
  32   20   21 ar
  33   20   33 1
  34   21   34 1
  35   22   23 3

#	End of record

