#	Name: ASD01150839
#	Creating user name:	WinNT
#	Creation time:	15. 06. 2019 19:05

#	Modifying user name:	WinNT
#	Modification time:	15. 06. 2019 19:05

#	Program:	/corina/corina34_cracker 3.40 0067  02.08.2006

@<TRIPOS>MOLECULE
ASD01150839
  62   65    0    0    0
SMALL
NO_CHARGES


@<TRIPOS>ATOM
   1 C1            -0.0157     1.3101     0.0092 C.2     
   2 N2             0.0021    -0.0041     0.0020 N.2     
   3 C3             1.2638    -0.4447    -0.0124 C.2     
   4 C4             2.0990     0.6651    -0.0144 C.2     
   5 N5             1.2581     1.7786    -0.0004 N.pl3   
   6 C6             3.5094     0.6663    -0.0275 C.2     
   7 O7             4.1191    -0.3876    -0.0390 O.2     
   8 O8             4.1835     1.8363    -0.0272 O.3     
   9 O9            -1.1295     2.0761     0.0189 O.3     
  10 C10           -2.3855     1.3946     0.0219 C.3     
  11 C11            1.6533     3.1236     0.0026 C.ar    
  12 C12            1.3727     3.9280     1.0988 C.ar    
  13 C13            1.7629     5.2529     1.0999 C.ar    
  14 C14            2.4336     5.7790     0.0086 C.ar    
  15 C15            2.7144     4.9782    -1.0857 C.ar    
  16 C16            2.3309     3.6514    -1.0882 C.ar    
  17 F17            2.8140     7.0753     0.0113 F       
  18 N18            1.6676    -1.7746    -0.0230 N.am    
  19 C19            0.7466    -2.7586    -0.0195 C.2     
  20 O20           -0.4377    -2.4828    -0.0071 O.2     
  21 N21            1.1389    -6.3653    -0.0420 N.pl3   
  22 N22            2.4737    -5.9452    -0.0516 N.2     
  23 C23            2.5069    -4.6409    -0.0450 C.2     
  24 C24            1.1748    -4.1686    -0.0308 C.2     
  25 C25            0.3496    -5.2760    -0.0293 C.2     
  26 C26           -1.1573    -5.2660    -0.0159 C.3     
  27 F27           -1.6120    -5.2698     1.3072 F       
  28 F28           -1.6218    -4.1172    -0.6653 F       
  29 F29           -1.6371    -6.4016    -0.6772 F       
  30 C30            0.6987    -7.6961    -0.0504 C.ar    
  31 C31            1.4081    -8.6588    -0.7560 C.ar    
  32 C32            0.9724    -9.9693    -0.7628 C.ar    
  33 C33           -0.1704   -10.3233    -0.0671 C.ar    
  34 C34           -0.8795    -9.3655     0.6365 C.ar    
  35 C35           -0.4443    -8.0549     0.6514 C.ar    
  36 Cl36          -0.7156   -11.9714    -0.0775 Cl      
  37 C37            5.6106     1.7628    -0.0408 C.3     
  38 C38            6.0712     1.0232    -1.2985 C.3     
  39 C39            6.1942     3.1771    -0.0383 C.3     
  40 C40            6.0943     1.0093     1.1998 C.3     
  41 H41           -2.4644     0.7742    -0.8708 H       
  42 H42           -2.4552     0.7651     0.9091 H       
  43 H43           -3.1950     2.1245     0.0298 H       
  44 H44            0.8494     3.5181     1.9500 H       
  45 H45            1.5445     5.8790     1.9523 H       
  46 H46            3.2375     5.3903    -1.9359 H       
  47 H47            2.5543     3.0259    -1.9398 H       
  48 H48            2.6123    -1.9946    -0.0329 H       
  49 H49            3.3968    -4.0290    -0.0497 H       
  50 H50            2.2998    -8.3829    -1.2993 H       
  51 H51            1.5237   -10.7183    -1.3117 H       
  52 H52           -1.7714    -9.6441     1.1781 H       
  53 H53           -0.9953    -7.3087     1.2046 H       
  54 H54            5.7266     1.5600    -2.1823 H       
  55 H55            7.1597     0.9672    -1.3089 H       
  56 H56            5.6554     0.0156    -1.3003 H       
  57 H57            5.8661     3.7040     0.8577 H       
  58 H58            7.2827     3.1210    -0.0487 H       
  59 H59            5.8496     3.7139    -0.9221 H       
  60 H60            5.6785     0.0017     1.1981 H       
  61 H61            7.1828     0.9532     1.1894 H       
  62 H62            5.7662     1.5362     2.0958 H       
@<TRIPOS>BOND
   1    1    2 2
   2    1    5 1
   3    1    9 1
   4    2    3 1
   5    3    4 2
   6    3   18 1
   7    4    5 1
   8    4    6 1
   9    5   11 1
  10    6    7 2
  11    6    8 1
  12    8   37 1
  13    9   10 1
  14   10   41 1
  15   10   42 1
  16   10   43 1
  17   11   12 ar
  18   11   16 ar
  19   12   13 ar
  20   12   44 1
  21   13   14 ar
  22   13   45 1
  23   14   15 ar
  24   14   17 1
  25   15   16 ar
  26   15   46 1
  27   16   47 1
  28   18   19 am
  29   18   48 1
  30   19   20 2
  31   19   24 1
  32   21   22 1
  33   21   25 1
  34   21   30 1
  35   22   23 2
  36   23   24 1
  37   23   49 1
  38   24   25 2
  39   25   26 1
  40   26   27 1
  41   26   28 1
  42   26   29 1
  43   30   31 ar
  44   30   35 ar
  45   31   32 ar
  46   31   50 1
  47   32   33 ar
  48   32   51 1
  49   33   34 ar
  50   33   36 1
  51   34   35 ar
  52   34   52 1
  53   35   53 1
  54   37   38 1
  55   37   40 1
  56   37   39 1
  57   38   54 1
  58   38   55 1
  59   38   56 1
  60   39   57 1
  61   39   58 1
  62   39   59 1
  63   40   60 1
  64   40   61 1
  65   40   62 1

#	End of record

