#	Name: ASD03330170
#	Creating user name:	WinNT
#	Creation time:	15. 06. 2019 20:36

#	Modifying user name:	WinNT
#	Modification time:	15. 06. 2019 20:36

#	Program:	/corina/corina34_cracker 3.40 0067  02.08.2006

@<TRIPOS>MOLECULE
ASD03330170
  79   83    0    0    0
SMALL
NO_CHARGES


@<TRIPOS>ATOM
   1 C1             0.8603     0.9968    -1.3044 C.2     
   2 C2             0.6560    -0.2824    -0.8635 C.2     
   3 C3             2.1804     1.3827    -1.3546 C.2     
   4 C4             3.0721     0.4114    -0.9509 C.2     
   5 S5             2.1968    -1.0424    -0.4922 S.3     
   6 C6             4.5378     0.5684    -0.9102 C.ar    
   7 C7             5.1063     1.6845    -0.2899 C.ar    
   8 C8             6.4761     1.8270    -0.2543 C.ar    
   9 C9             7.2922     0.8637    -0.8343 C.ar    
  10 C10            6.7315    -0.2471    -1.4523 C.ar    
  11 C11            5.3629    -0.4014    -1.4869 C.ar    
  12 C12            2.6078     2.7288    -1.8053 C.ar    
  13 C13            2.2868     3.8544    -1.0487 C.ar    
  14 C14            3.3378     2.8729    -2.9858 C.ar    
  15 C15            3.7335     4.1291    -3.4003 C.ar    
  16 C16            3.4073     5.2438    -2.6467 C.ar    
  17 C17            2.6875     5.1053    -1.4724 C.ar    
  18 Cl18           3.9088     6.8203    -3.1727 Cl      
  19 Cl19           3.7481     1.4757    -3.9309 Cl      
  20 C20           -0.6050    -0.8998    -0.7264 C.2     
  21 C21           -0.6990    -2.3191    -0.2286 C.3     
  22 O22           -1.6151    -0.2873    -1.0097 O.2     
  23 O23            8.6421     1.0085    -0.7972 O.3     
  24 N24           13.1664    -0.4640    -1.7953 N.am    
  25 C25           -2.0705    -2.5455     0.4106 C.3     
  26 C26           -2.1660    -3.9865     0.9160 C.3     
  27 C27           -1.9845    -4.9516    -0.2574 C.3     
  28 C28           -0.6130    -4.7251    -0.8965 C.3     
  29 C29           -0.5176    -3.2841    -1.4019 C.3     
  30 C30           -2.0785    -6.3709     0.2404 C.ar    
  31 C31           -1.0463    -7.2580    -0.0014 C.ar    
  32 C32           -1.1326    -8.5599     0.4551 C.ar    
  33 C33           -2.2509    -8.9746     1.1540 C.ar    
  34 C34           -3.2827    -8.0872     1.3967 C.ar    
  35 C35           -3.1945    -6.7841     0.9438 C.ar    
  36 C36           -3.0627    -4.7059    -1.2812 C.2     
  37 O37           -3.9710    -3.9412    -1.0338 O.2     
  38 N38           -3.0175    -5.3359    -2.4718 N.am    
  39 S39           14.3078    -1.6308    -2.0749 S.o2    
  40 O40           15.5451    -0.9769    -1.8285 O.2     
  41 O41           13.8883    -2.7296    -1.2774 O.2     
  42 C42            9.4219    -0.0187    -1.4125 C.3     
  43 C43           10.9083     0.3157    -1.2715 C.3     
  44 C44           11.7432    -0.7842    -1.9303 C.3     
  45 C45           14.1340    -2.0208    -3.8379 C.3     
  46 H46            0.0505     1.6500    -1.5942 H       
  47 H47            4.4727     2.4342     0.1606 H       
  48 H48            6.9163     2.6891     0.2247 H       
  49 H49            7.3697    -0.9931    -1.9025 H       
  50 H50            4.9280    -1.2654    -1.9673 H       
  51 H51            1.7252     3.7479    -0.1323 H       
  52 H52            4.2985     4.2423    -4.3137 H       
  53 H53            2.4358     5.9782    -0.8885 H       
  54 H54            0.0808    -2.4968     0.5119 H       
  55 H55           13.4402     0.4315    -1.5421 H       
  56 H56           -2.1998    -1.8580     1.2464 H       
  57 H57           -2.8503    -2.3678    -0.3300 H       
  58 H58           -1.3862    -4.1642     1.6565 H       
  59 H59           -3.1431    -4.1478     1.3713 H       
  60 H60            0.1668    -4.9028    -0.1560 H       
  61 H61           -0.4837    -5.4126    -1.7324 H       
  62 H62           -1.2974    -3.1064    -2.1425 H       
  63 H63            0.4595    -3.1228    -1.8573 H       
  64 H64           -0.1727    -6.9340    -0.5474 H       
  65 H65           -0.3265    -9.2531     0.2656 H       
  66 H66           -2.3186    -9.9919     1.5101 H       
  67 H67           -4.1565    -8.4113     1.9424 H       
  68 H68           -4.0006    -6.0908     1.1334 H       
  69 H69           -2.3327    -6.0013    -2.6428 H       
  70 H70           -3.6697    -5.1238    -3.1578 H       
  71 H71            9.2162    -0.9720    -0.9256 H       
  72 H72            9.1636    -0.0873    -2.4693 H       
  73 H73           11.1140     1.2689    -1.7584 H       
  74 H74           11.1666     0.3842    -0.2148 H       
  75 H75           11.4849    -0.8527    -2.9871 H       
  76 H76           11.5375    -1.7375    -1.4434 H       
  77 H77           14.3167    -1.1230    -4.4284 H       
  78 H78           14.8560    -2.7897    -4.1129 H       
  79 H79           13.1247    -2.3840    -4.0319 H       
@<TRIPOS>BOND
   1    1    2 2
   2    1    3 1
   3    1   46 1
   4    2   20 1
   5    2    5 1
   6    3    4 2
   7    3   12 1
   8    4    5 1
   9    4    6 1
  10    6    7 ar
  11    6   11 ar
  12    7    8 ar
  13    7   47 1
  14    8    9 ar
  15    8   48 1
  16    9   10 ar
  17    9   23 1
  18   10   11 ar
  19   10   49 1
  20   11   50 1
  21   12   13 ar
  22   12   14 ar
  23   13   17 ar
  24   13   51 1
  25   14   15 ar
  26   14   19 1
  27   15   16 ar
  28   15   52 1
  29   16   17 ar
  30   16   18 1
  31   17   53 1
  32   20   21 1
  33   20   22 2
  34   21   25 1
  35   21   29 1
  36   21   54 1
  37   23   42 1
  38   24   39 am
  39   24   44 1
  40   24   55 1
  41   25   26 1
  42   25   56 1
  43   25   57 1
  44   26   27 1
  45   26   58 1
  46   26   59 1
  47   27   28 1
  48   27   30 1
  49   27   36 1
  50   28   29 1
  51   28   60 1
  52   28   61 1
  53   29   62 1
  54   29   63 1
  55   30   31 ar
  56   30   35 ar
  57   31   32 ar
  58   31   64 1
  59   32   33 ar
  60   32   65 1
  61   33   34 ar
  62   33   66 1
  63   34   35 ar
  64   34   67 1
  65   35   68 1
  66   36   37 2
  67   36   38 am
  68   38   69 1
  69   38   70 1
  70   39   45 1
  71   39   40 2
  72   39   41 2
  73   42   43 1
  74   42   71 1
  75   42   72 1
  76   43   44 1
  77   43   73 1
  78   43   74 1
  79   44   75 1
  80   44   76 1
  81   45   77 1
  82   45   78 1
  83   45   79 1

#	End of record

