#	Name: ASD02030409
#	Creating user name:	WinNT
#	Creation time:	15. 06. 2019 20:15

#	Modifying user name:	WinNT
#	Modification time:	15. 06. 2019 20:15

#	Program:	/corina/corina34_cracker 3.40 0067  02.08.2006

@<TRIPOS>MOLECULE
ASD02030409
  21   21    0    0    0
SMALL
NO_CHARGES


@<TRIPOS>ATOM
   1 C1            -0.0168     1.3875     0.0097 C.ar    
   2 C2             0.0021    -0.0041     0.0020 C.ar    
   3 C3             1.2236    -0.6643    -0.0132 C.ar    
   4 C4             2.3840     0.0914    -0.0202 C.ar    
   5 C5             2.2925     1.4805    -0.0118 C.ar    
   6 N6             1.1173     2.0798     0.0026 N.ar    
   7 C7            -1.3128     2.1032     0.0197 C.2     
   8 O8            -2.3527     1.4762     0.0212 O.2     
   9 O9            -1.3384     3.4498     0.0271 O.3     
  10 O10            3.4254     2.2269    -0.0182 O.3     
  11 C11            3.2668     3.6470    -0.0091 C.3     
  12 Br12           1.3008    -2.5537    -0.0234 Br      
  13 C13           -2.6444     4.0842     0.0367 C.3     
  14 H14           -0.9217    -0.5635     0.0082 H       
  15 H15            3.3498    -0.3919    -0.0316 H       
  16 H16            2.7077     3.9559    -0.8923 H       
  17 H17            2.7240     3.9462     0.8876 H       
  18 H18            4.2477     4.1223    -0.0155 H       
  19 H19           -3.1999     3.7857    -0.8523 H       
  20 H20           -3.1915     3.7760     0.9276 H       
  21 H21           -2.5221     5.1673     0.0420 H       
@<TRIPOS>BOND
   1    1    2 ar
   2    1    6 ar
   3    1    7 1
   4    2    3 ar
   5    2   14 1
   6    3    4 ar
   7    3   12 1
   8    4    5 ar
   9    4   15 1
  10    5    6 ar
  11    5   10 1
  12    7    8 2
  13    7    9 1
  14    9   13 1
  15   10   11 1
  16   11   16 1
  17   11   17 1
  18   11   18 1
  19   13   19 1
  20   13   20 1
  21   13   21 1

#	End of record

