#	Name: ASD08170131
#	Creating user name:	WinNT
#	Creation time:	15. 06. 2019 21:17

#	Modifying user name:	WinNT
#	Modification time:	15. 06. 2019 21:17

#	Program:	/corina/corina34_cracker 3.40 0067  02.08.2006

@<TRIPOS>MOLECULE
ASD08170131
  63   66    0    0    0
SMALL
NO_CHARGES


@<TRIPOS>ATOM
   1 C1            -0.0184     1.5028     0.0103 C.3     
   2 C2             1.4170     2.0324    -0.0006 C.3     
   3 C3             1.3963     3.5622     0.0079 C.3     
   4 C4             2.8101     4.0838    -0.0028 C.2     
   5 C5             0.0021    -0.0041     0.0020 C.2     
   6 S6             3.7998     4.4363     1.4141 S.3     
   7 C7             5.0773     4.9160     0.3785 C.2     
   8 N8             4.6870     4.7829    -0.8532 N.2     
   9 N9             3.5188     4.3485    -1.0542 N.2     
  10 S10            0.0026    -1.0367    -1.4281 S.3     
  11 N11            0.0281    -0.7735     1.0436 N.2     
  12 N12            0.0423    -2.0172     0.8270 N.2     
  13 C13            0.0316    -2.4140    -0.4097 C.2     
  14 N14            0.0439    -3.7376    -0.8365 N.am    
  15 C15            0.0694    -4.7369     0.0675 C.2     
  16 O16            0.0817    -4.4819     1.2531 O.2     
  17 N17            6.3252     5.3728     0.7886 N.am    
  18 C18            7.2498     5.7214    -0.1279 C.2     
  19 C19            8.6020     6.2164     0.3164 C.3     
  20 O20            6.9935     5.6368    -1.3104 O.2     
  21 C21            0.0826    -6.1711    -0.3950 C.3     
  22 C22            9.4422     6.5364    -0.8930 C.ar    
  23 C23            0.1109    -7.0850     0.8030 C.ar    
  24 C24           10.6380     5.8740    -1.0988 C.ar    
  25 C25           -0.9171    -7.0462     1.7263 C.ar    
  26 C26           -1.1740    -6.4522    -1.2213 C.3     
  27 C27            8.4298     7.4773     1.1657 C.3     
  28 C28           11.4086     6.1675    -2.2082 C.ar    
  29 C29           10.9834     7.1230    -3.1121 C.ar    
  30 C30            9.7872     7.7847    -2.9068 C.ar    
  31 C31            9.0144     7.4881    -1.7997 C.ar    
  32 C32            1.1621    -7.9660     0.9756 C.ar    
  33 C33            1.1881    -8.8042     2.0745 C.ar    
  34 C34            0.1631    -8.7611     3.0011 C.ar    
  35 C35           -0.8912    -7.8844     2.8252 C.ar    
  36 O36            7.7330     7.1493     2.3695 O.3     
  37 O37           -1.1433    -5.6693    -2.4163 O.3     
  38 H38           -0.5286     1.8543     0.9071 H       
  39 H39           -0.5455     1.8639    -0.8728 H       
  40 H40            1.9442     1.6713     0.8825 H       
  41 H41            1.9272     1.6808    -0.8974 H       
  42 H42            0.8691     3.9233    -0.8752 H       
  43 H43            0.8861     3.9137     0.9047 H       
  44 H44            0.0340    -3.9415    -1.7848 H       
  45 H45            6.5302     5.4405     1.7343 H       
  46 H46            9.0952     5.4448     0.9076 H       
  47 H47            0.9670    -6.3473    -1.0073 H       
  48 H48           10.9702     5.1275    -0.3926 H       
  49 H49           -1.7404    -6.3607     1.5893 H       
  50 H50           -1.2091    -7.5103    -1.4808 H       
  51 H51           -2.0577    -6.1915    -0.6388 H       
  52 H52            9.4097     7.8856     1.4129 H       
  53 H53            7.8586     8.2176     0.6055 H       
  54 H54           12.3432     5.6505    -2.3686 H       
  55 H55           11.5858     7.3528    -3.9785 H       
  56 H56            9.4551     8.5315    -3.6128 H       
  57 H57            8.0798     8.0051    -1.6393 H       
  58 H58            1.9629    -7.9996     0.2517 H       
  59 H59            2.0090    -9.4930     2.2090 H       
  60 H60            0.1832    -9.4162     3.8595 H       
  61 H61           -1.6919    -7.8507     3.5491 H       
  62 H62            7.5880     7.9029     2.9578 H       
  63 H63           -1.9111    -5.7971    -2.9901 H       
@<TRIPOS>BOND
   1    1    5 1
   2    1    2 1
   3    1   38 1
   4    1   39 1
   5    2    3 1
   6    2   40 1
   7    2   41 1
   8    3    4 1
   9    3   42 1
  10    3   43 1
  11    4    6 1
  12    4    9 2
  13    5   10 1
  14    5   11 2
  15    6    7 1
  16    7    8 2
  17    7   17 1
  18    8    9 1
  19   10   13 1
  20   11   12 1
  21   12   13 2
  22   13   14 1
  23   14   15 am
  24   14   44 1
  25   15   16 2
  26   15   21 1
  27   17   18 am
  28   17   45 1
  29   18   19 1
  30   18   20 2
  31   19   22 1
  32   19   27 1
  33   19   46 1
  34   21   23 1
  35   21   26 1
  36   21   47 1
  37   22   24 ar
  38   22   31 ar
  39   23   32 ar
  40   23   25 ar
  41   24   28 ar
  42   24   48 1
  43   25   35 ar
  44   25   49 1
  45   26   37 1
  46   26   50 1
  47   26   51 1
  48   27   36 1
  49   27   52 1
  50   27   53 1
  51   28   29 ar
  52   28   54 1
  53   29   30 ar
  54   29   55 1
  55   30   31 ar
  56   30   56 1
  57   31   57 1
  58   32   33 ar
  59   32   58 1
  60   33   34 ar
  61   33   59 1
  62   34   35 ar
  63   34   60 1
  64   35   61 1
  65   36   62 1
  66   37   63 1

#	End of record

