#	Name: ASD01882450
#	Creating user name:	WinNT
#	Creation time:	15. 06. 2019 19:44

#	Modifying user name:	WinNT
#	Modification time:	15. 06. 2019 19:44

#	Program:	/corina/corina34_cracker 3.40 0067  02.08.2006

@<TRIPOS>MOLECULE
ASD01882450
  55   59    0    0    0
SMALL
NO_CHARGES


@<TRIPOS>ATOM
   1 C1            -0.0036     1.4595     0.1789 C.2     
   2 C2             0.0170    -0.0042     0.1798 C.2     
   3 C3             1.2465    -0.6462    -0.0133 C.2     
   4 C4             2.4044     0.1333    -0.1991 C.2     
   5 C5             2.3458     1.4783    -0.1932 C.2     
   6 N6             1.1712     2.1454    -0.0093 N.pl3   
   7 N7            -0.4516     3.5390     0.2411 N.2     
   8 N8            -0.9570     2.3582     0.3221 N.2     
   9 C9             0.8372     3.4679     0.0395 C.2     
  10 C10           -1.1853    -0.7578     0.3730 C.1     
  11 N11           -2.1391    -1.3556     0.5262 N.1     
  12 C12            1.7815     4.6324    -0.1134 C.3     
  13 N13            1.8720     5.0066    -1.5310 N.3     
  14 C14            2.5934     6.2818    -1.6959 C.3     
  15 C15            3.7831     6.0152    -2.6420 C.3     
  16 C16            3.3406     4.7415    -3.4094 C.3     
  17 C17            2.5739     3.9645    -2.3103 C.3     
  18 N18            1.3225    -2.0264    -0.0210 N.pl3   
  19 C19            2.0977    -2.7391     1.0035 C.3     
  20 C20            3.0920    -3.6741     0.3078 C.3     
  21 C21            2.3356    -4.5892    -0.6578 C.3     
  22 C22            1.6398    -3.7427    -1.7262 C.3     
  23 C23            0.6245    -2.8088    -1.0503 C.3     
  24 C24            3.3063    -5.5335    -1.3189 C.ar    
  25 C25            3.1552    -6.8991    -1.1659 C.ar    
  26 C26            4.0457    -7.7652    -1.7723 C.ar    
  27 C27            5.0869    -7.2659    -2.5321 C.ar    
  28 C28            5.2375    -5.9004    -2.6859 C.ar    
  29 C29            4.3445    -5.0344    -2.0831 C.ar    
  30 H30            3.3555    -0.3561    -0.3485 H       
  31 H31            3.2542     2.0442    -0.3380 H       
  32 H32            1.4098     5.4796     0.4630 H       
  33 H33            2.7689     4.3498     0.2516 H       
  34 H34            1.9313     7.0285    -2.1341 H       
  35 H35            2.9589     6.6288    -0.7293 H       
  36 H36            3.9237     6.8497    -3.3289 H       
  37 H37            4.6931     5.8255    -2.0728 H       
  38 H38            2.6818     4.9952    -4.2399 H       
  39 H39            4.2046     4.1753    -3.7572 H       
  40 H40            3.2715     3.4200    -1.6738 H       
  41 H41            1.8558     3.2793    -2.7607 H       
  42 H42            2.6403    -2.0200     1.6172 H       
  43 H43            1.4243    -3.3233     1.6307 H       
  44 H44            3.8206    -3.0827    -0.2467 H       
  45 H45            3.6064    -4.2789     1.0547 H       
  46 H46            1.5902    -5.1623    -0.1064 H       
  47 H47            2.3821    -3.1507    -2.2616 H       
  48 H48            1.1207    -4.3964    -2.4271 H       
  49 H49           -0.1666    -3.3985    -0.5871 H       
  50 H50            0.1948    -2.1357    -1.7921 H       
  51 H51            2.3417    -7.2892    -0.5722 H       
  52 H52            3.9280    -8.8321    -1.6521 H       
  53 H53            5.7830    -7.9426    -3.0053 H       
  54 H54            6.0512    -5.5103    -3.2793 H       
  55 H55            4.4599    -3.9676    -2.2063 H       
@<TRIPOS>BOND
   1    1    2 1
   2    1    6 1
   3    1    8 2
   4    2    3 2
   5    2   10 1
   6    3    4 1
   7    3   18 1
   8    4    5 2
   9    4   30 1
  10    5    6 1
  11    5   31 1
  12    6    9 1
  13    7    8 1
  14    7    9 2
  15    9   12 1
  16   10   11 3
  17   12   13 1
  18   12   32 1
  19   12   33 1
  20   13   14 1
  21   13   17 1
  22   14   15 1
  23   14   34 1
  24   14   35 1
  25   15   16 1
  26   15   36 1
  27   15   37 1
  28   16   17 1
  29   16   38 1
  30   16   39 1
  31   17   40 1
  32   17   41 1
  33   18   19 1
  34   18   23 1
  35   19   20 1
  36   19   42 1
  37   19   43 1
  38   20   21 1
  39   20   44 1
  40   20   45 1
  41   21   22 1
  42   21   24 1
  43   21   46 1
  44   22   23 1
  45   22   47 1
  46   22   48 1
  47   23   49 1
  48   23   50 1
  49   24   25 ar
  50   24   29 ar
  51   25   26 ar
  52   25   51 1
  53   26   27 ar
  54   26   52 1
  55   27   28 ar
  56   27   53 1
  57   28   29 ar
  58   28   54 1
  59   29   55 1

#	End of record

