#	Name: ASD03332004
#	Creating user name:	WinNT
#	Creation time:	15. 06. 2019 20:40

#	Modifying user name:	WinNT
#	Modification time:	15. 06. 2019 20:40

#	Program:	/corina/corina34_cracker 3.40 0067  02.08.2006

@<TRIPOS>MOLECULE
ASD03332004
  67   69    0    0    0
SMALL
NO_CHARGES


@<TRIPOS>ATOM
   1 C1             0.3413     1.7162     1.5246 C.2     
   2 N2             0.3673     0.4247     1.9294 N.pl3   
   3 C3             1.5944    -0.0825     1.6091 C.2     
   4 N4             2.3049     0.8684     1.0453 N.2     
   5 C5             1.5601     1.9928     0.9814 C.2     
   6 C6             1.9888     3.2880     0.4242 C.2     
   7 O7             1.2229     4.2328     0.4226 O.2     
   8 N8             3.2296     3.4256    -0.0837 N.am    
   9 C9             3.6558     4.7131    -0.6376 C.3     
  10 C10            3.2062     4.8146    -2.0965 C.3     
  11 C11            3.8698     3.7039    -2.9132 C.3     
  12 C12            5.1575     4.8183    -0.5663 C.2     
  13 C13            1.6854     4.6648    -2.1731 C.3     
  14 C14            3.6136     6.1765    -2.6622 C.3     
  15 O15            5.8245     3.8309    -0.3400 O.2     
  16 N16            5.7592     6.0095    -0.7540 N.am    
  17 C17            7.2215     6.0988    -0.7594 C.3     
  18 C18           -0.7280    -0.2778     2.6036 C.3     
  19 C19           -2.0361    -0.0056     1.8547 C.3     
  20 C20           -2.6789     1.2709     2.3878 C.3     
  21 N21           -1.6606     2.2440     2.7887 N.3     
  22 C22           -0.8328     2.6532     1.6446 C.3     
  23 C23           -2.2737     3.4100     3.4387 C.3     
  24 C24            2.0453    -1.4629     1.8543 C.2     
  25 C25            2.0036    -1.9179     3.0863 C.2     
  26 C26            2.4401    -3.2983     3.4821 C.3     
  27 C27            2.5191    -4.1998     2.2483 C.3     
  28 C28            3.3310    -3.4754     1.1674 C.3     
  29 C29            2.5202    -2.2702     0.6814 C.3     
  30 C30            3.2102    -5.5145     2.6156 C.3     
  31 H31            3.8405     2.6721    -0.0824 H       
  32 H32            3.2072     5.5227    -0.0620 H       
  33 H33            3.5795     2.7336    -2.5101 H       
  34 H34            3.5494     3.7762    -3.9525 H       
  35 H35            4.9532     3.8106    -2.8586 H       
  36 H36            1.2127     5.4561    -1.5913 H       
  37 H37            1.3651     4.7371    -3.2124 H       
  38 H38            1.3952     3.6945    -1.7700 H       
  39 H39            4.6810     6.3309    -2.5044 H       
  40 H40            3.3961     6.2063    -3.7299 H       
  41 H41            3.0540     6.9626    -2.1553 H       
  42 H42            5.2241     6.8078    -0.8855 H       
  43 H43            7.6207     5.4734    -1.5579 H       
  44 H44            7.5218     7.1336    -0.9239 H       
  45 H45            7.6100     5.7557     0.1994 H       
  46 H46           -0.5262    -1.3490     2.6069 H       
  47 H47           -0.8140     0.0808     3.6293 H       
  48 H48           -1.8276     0.1103     0.7911 H       
  49 H49           -2.7183    -0.8432     2.0003 H       
  50 H50           -3.3052     1.7080     1.6101 H       
  51 H51           -3.2992     1.0261     3.2500 H       
  52 H52           -0.4729     3.6702     1.8005 H       
  53 H53           -1.4268     2.6117     0.7316 H       
  54 H54           -2.8172     3.0870     4.3266 H       
  55 H55           -1.4953     4.1167     3.7262 H       
  56 H56           -2.9635     3.8915     2.7455 H       
  57 H57            1.6340    -1.2602     3.8591 H       
  58 H58            3.4210    -3.2456     3.9545 H       
  59 H59            1.7228    -3.7154     4.1889 H       
  60 H60            1.5143    -4.4021     1.8775 H       
  61 H61            4.2794    -3.1384     1.5859 H       
  62 H62            3.5154    -4.1519     0.3329 H       
  63 H63            1.6636    -2.6196     0.1051 H       
  64 H64            3.1483    -1.6439     0.0479 H       
  65 H65            2.6406    -6.0186     3.3962 H       
  66 H66            3.2651    -6.1545     1.7350 H       
  67 H67            4.2173    -5.3069     2.9772 H       
@<TRIPOS>BOND
   1    1    2 1
   2    1    5 2
   3    1   22 1
   4    2    3 1
   5    2   18 1
   6    3    4 2
   7    3   24 1
   8    4    5 1
   9    5    6 1
  10    6    7 2
  11    6    8 am
  12    8    9 1
  13    8   31 1
  14    9   10 1
  15    9   12 1
  16    9   32 1
  17   10   11 1
  18   10   13 1
  19   10   14 1
  20   11   33 1
  21   11   34 1
  22   11   35 1
  23   12   15 2
  24   12   16 am
  25   13   36 1
  26   13   37 1
  27   13   38 1
  28   14   39 1
  29   14   40 1
  30   14   41 1
  31   16   17 1
  32   16   42 1
  33   17   43 1
  34   17   44 1
  35   17   45 1
  36   18   19 1
  37   18   46 1
  38   18   47 1
  39   19   20 1
  40   19   48 1
  41   19   49 1
  42   20   21 1
  43   20   50 1
  44   20   51 1
  45   21   22 1
  46   21   23 1
  47   22   52 1
  48   22   53 1
  49   23   54 1
  50   23   55 1
  51   23   56 1
  52   24   25 2
  53   24   29 1
  54   25   26 1
  55   25   57 1
  56   26   27 1
  57   26   58 1
  58   26   59 1
  59   27   28 1
  60   27   30 1
  61   27   60 1
  62   28   29 1
  63   28   61 1
  64   28   62 1
  65   29   63 1
  66   29   64 1
  67   30   65 1
  68   30   66 1
  69   30   67 1

#	End of record

