#	Name: ASD00660020
#	Creating user name:	WinNT
#	Creation time:	15. 06. 2019 18:36

#	Modifying user name:	WinNT
#	Modification time:	15. 06. 2019 18:36

#	Program:	/corina/corina34_cracker 3.40 0067  02.08.2006

@<TRIPOS>MOLECULE
ASD00660020
  63   66    0    0    0
SMALL
NO_CHARGES


@<TRIPOS>ATOM
   1 C1             7.0102    -2.3002    -6.1722 C.ar    
   2 C2             6.6369    -3.3823    -5.3856 C.ar    
   3 C3             6.4426    -3.2357    -4.0309 C.ar    
   4 C4             6.6232    -1.9835    -3.4371 C.ar    
   5 C5             7.0038    -0.8844    -4.2409 C.ar    
   6 C6             7.1946    -1.0557    -5.6110 C.ar    
   7 N7             6.4417    -1.7976    -2.1084 N.2     
   8 C8             6.6104    -0.6241    -1.5513 C.2     
   9 N9             6.9772     0.4900    -2.2559 N.am    
  10 C10            7.1863     0.4204    -3.5909 C.2     
  11 C11            7.1377     1.7093    -1.5914 C.ar    
  12 O12            7.5129     1.4033    -4.2303 O.2     
  13 S13            6.3526    -0.4732     0.1852 S.3     
  14 C14            5.7451    -2.1368     0.5585 C.3     
  15 C15            6.8590    -3.1334     0.3653 C.2     
  16 N16            6.5711    -4.4202     0.0868 N.am    
  17 O17            8.0145    -2.7774     0.4606 O.2     
  18 C18            7.6461    -5.4034    -0.1042 C.3     
  19 C19            7.4394    -6.1048    -1.4504 C.3     
  20 C20            6.0294    -6.6974    -1.5011 C.3     
  21 C21            4.9973    -5.5741    -1.3782 C.3     
  22 C22            5.1762    -4.8679    -0.0257 C.3     
  23 C23            5.8342    -7.4175    -2.8104 C.2     
  24 N24            4.6597    -8.0218    -3.0786 N.am    
  25 O25            6.7340    -7.4532    -3.6228 O.2     
  26 C26            5.2598    -2.1891     2.0085 C.3     
  27 C27            4.0392    -1.2810     2.1708 C.3     
  28 C28            3.6209    -1.2469     3.6422 C.3     
  29 C29            2.4003    -0.3388     3.8045 C.3     
  30 C30            8.4011     2.2736    -1.4292 C.ar    
  31 C31            8.5171     3.4802    -0.7669 C.ar    
  32 N32            7.4500     4.0960    -0.2914 N.ar    
  33 C33            6.2376     3.5928    -0.4256 C.ar    
  34 C34            6.0373     2.3943    -1.0792 C.ar    
  35 Cl35          10.0848     4.1956    -0.5565 Cl      
  36 H36            7.1618    -2.4366    -7.2328 H       
  37 H37            6.4968    -4.3507    -5.8427 H       
  38 H38            6.1517    -4.0843    -3.4297 H       
  39 H39            7.4857    -0.2186    -6.2282 H       
  40 H40            4.9195    -2.3807    -0.1101 H       
  41 H41            8.6106    -4.8955    -0.1011 H       
  42 H42            7.6156    -6.1390     0.6996 H       
  43 H43            7.5602    -5.3836    -2.2587 H       
  44 H44            8.1736    -6.9027    -1.5614 H       
  45 H45            5.9010    -7.4001    -0.6778 H       
  46 H46            5.1411    -4.8579    -2.1872 H       
  47 H47            3.9933    -5.9943    -1.4379 H       
  48 H48            4.9431    -5.5613     0.7823 H       
  49 H49            4.5116    -4.0055     0.0270 H       
  50 H50            3.9401    -7.9933    -2.4288 H       
  51 H51            4.5341    -8.4853    -3.9214 H       
  52 H52            4.9872    -3.2132     2.2637 H       
  53 H53            6.0561    -1.8493     2.6707 H       
  54 H54            4.2900    -0.2728     1.8410 H       
  55 H55            3.2168    -1.6664     1.5681 H       
  56 H56            3.3701    -2.2551     3.9720 H       
  57 H57            4.4433    -0.8615     4.2449 H       
  58 H58            1.5780    -0.7242     3.2018 H       
  59 H59            2.1023    -0.3145     4.8527 H       
  60 H60            2.6512     0.6694     3.4746 H       
  61 H61            9.2774     1.7745    -1.8156 H       
  62 H62            5.3907     4.1277    -0.0218 H       
  63 H63            5.0421     1.9886    -1.1856 H       
@<TRIPOS>BOND
   1    1    2 ar
   2    1    6 ar
   3    1   36 1
   4    2    3 ar
   5    2   37 1
   6    3    4 ar
   7    3   38 1
   8    4    5 ar
   9    4    7 1
  10    5    6 ar
  11    5   10 1
  12    6   39 1
  13    7    8 2
  14    8    9 1
  15    8   13 1
  16    9   10 am
  17    9   11 1
  18   10   12 2
  19   11   30 ar
  20   11   34 ar
  21   13   14 1
  22   14   15 1
  23   14   26 1
  24   14   40 1
  25   15   16 am
  26   15   17 2
  27   16   18 1
  28   16   22 1
  29   18   19 1
  30   18   41 1
  31   18   42 1
  32   19   20 1
  33   19   43 1
  34   19   44 1
  35   20   21 1
  36   20   23 1
  37   20   45 1
  38   21   22 1
  39   21   46 1
  40   21   47 1
  41   22   48 1
  42   22   49 1
  43   23   24 am
  44   23   25 2
  45   24   50 1
  46   24   51 1
  47   26   27 1
  48   26   52 1
  49   26   53 1
  50   27   28 1
  51   27   54 1
  52   27   55 1
  53   28   29 1
  54   28   56 1
  55   28   57 1
  56   29   58 1
  57   29   59 1
  58   29   60 1
  59   30   31 ar
  60   30   61 1
  61   31   32 ar
  62   31   35 1
  63   32   33 ar
  64   33   34 ar
  65   33   62 1
  66   34   63 1

#	End of record

