#	Name: ASD01901390
#	Creating user name:	WinNT
#	Creation time:	15. 06. 2019 19:53

#	Modifying user name:	WinNT
#	Modification time:	15. 06. 2019 19:53

#	Program:	/corina/corina34_cracker 3.40 0067  02.08.2006

@<TRIPOS>MOLECULE
ASD01901390
  37   40    0    0    0
SMALL
NO_CHARGES


@<TRIPOS>ATOM
   1 N1            -0.0159     1.3225     0.0093 N.ar    
   2 C2             1.0963     2.0288     0.0025 C.ar    
   3 C3             2.3331     1.4059    -0.0127 C.ar    
   4 C4             2.3958     0.0176    -0.0207 C.ar    
   5 C5             1.2108    -0.6968    -0.0132 C.ar    
   6 C6             0.0021    -0.0041     0.0020 C.ar    
   7 C7            -1.2762    -0.7565     0.0107 C.2     
   8 N8            -2.4079    -2.8287     0.0172 N.2     
   9 C9            -1.2759    -2.1687     0.0090 C.2     
  10 C10           -2.4714    -0.0926     0.0261 C.2     
  11 N11           -3.6273    -0.8144     0.0342 N.pl3   
  12 C12           -3.5852    -2.1852     0.0269 C.2     
  13 C13           -4.9471    -0.4505     0.0494 C.2     
  14 C14           -5.6723    -1.5890     0.0510 C.2     
  15 N15           -4.8337    -2.6295     0.0361 N.2     
  16 C16           -7.1768    -1.6728     0.0670 C.3     
  17 O17           -7.7272    -0.3541     0.0802 O.3     
  18 C18           -9.0827    -0.2512     0.0956 C.ar    
  19 C19           -9.8657    -1.3961     0.1036 C.ar    
  20 C20           -9.6839     0.9987     0.1091 C.ar    
  21 C21          -11.0614     1.1018     0.1251 C.ar    
  22 C22          -11.8419    -0.0418     0.1283 C.ar    
  23 C23          -11.2431    -1.2901     0.1197 C.ar    
  24 F24          -13.1889     0.0605     0.1449 F       
  25 F25            3.4671     2.1402    -0.0200 F       
  26 H26            1.0429     3.1074     0.0084 H       
  27 H27            3.3479    -0.4921    -0.0329 H       
  28 H28            1.2227    -1.7767    -0.0195 H       
  29 H29           -0.3394    -2.7066     0.0007 H       
  30 H30           -2.4990     0.9870     0.0322 H       
  31 H31           -5.3349     0.5574     0.0584 H       
  32 H32           -7.5208    -2.2011    -0.8222 H       
  33 H33           -7.5013    -2.2109     0.9576 H       
  34 H34           -9.3989    -2.3700     0.0969 H       
  35 H35           -9.0753     1.8910     0.1073 H       
  36 H36          -11.5298     2.0750     0.1356 H       
  37 H37          -11.8530    -2.1814     0.1260 H       
@<TRIPOS>BOND
   1    1    6 ar
   2    1    2 ar
   3    2    3 ar
   4    2   26 1
   5    3    4 ar
   6    3   25 1
   7    4    5 ar
   8    4   27 1
   9    5    6 ar
  10    5   28 1
  11    6    7 1
  12    7   10 2
  13    7    9 1
  14    8    9 2
  15    8   12 1
  16    9   29 1
  17   10   11 1
  18   10   30 1
  19   11   13 1
  20   11   12 1
  21   12   15 2
  22   13   14 2
  23   13   31 1
  24   14   15 1
  25   14   16 1
  26   16   17 1
  27   16   32 1
  28   16   33 1
  29   17   18 1
  30   18   20 ar
  31   18   19 ar
  32   19   23 ar
  33   19   34 1
  34   20   21 ar
  35   20   35 1
  36   21   22 ar
  37   21   36 1
  38   22   23 ar
  39   22   24 1
  40   23   37 1

#	End of record

