#	Name: ASD01230248
#	Creating user name:	WinNT
#	Creation time:	15. 06. 2019 19:12

#	Modifying user name:	WinNT
#	Modification time:	15. 06. 2019 19:12

#	Program:	/corina/corina34_cracker 3.40 0067  02.08.2006

@<TRIPOS>MOLECULE
ASD01230248
  45   48    0    0    0
SMALL
NO_CHARGES


@<TRIPOS>ATOM
   1 S1             0.0792     1.7750     1.3204 S.o2    
   2 N2            -0.1050     0.2591     0.6832 N.am    
   3 C3             0.6423    -0.1823    -0.2993 C.2     
   4 N4             1.6402     0.5193    -0.9139 N.pl3   
   5 C5             1.9767     1.9101    -0.5986 C.3     
   6 C6             1.8037     2.1797     0.8989 C.3     
   7 C7             0.3589    -1.5586    -0.7590 C.2     
   8 C8             1.1307    -2.1032    -1.7621 C.2     
   9 C9             2.1615    -1.3342    -2.3198 C.2     
  10 C10            2.3901    -0.0796    -1.8955 C.2     
  11 C11           -0.7397    -2.3416    -0.1490 C.ar    
  12 C12           -0.4542    -3.4969     0.5796 C.ar    
  13 C13           -1.4798    -4.2236     1.1462 C.ar    
  14 C14           -2.7956    -3.8073     0.9921 C.ar    
  15 C15           -3.0835    -2.6581     0.2676 C.ar    
  16 C16           -2.0626    -1.9230    -0.2965 C.ar    
  17 O17           -3.8039    -4.5265     1.5511 O.3     
  18 C18           -4.3852    -5.4994     0.8016 C.ar    
  19 C19           -3.8766    -5.8073    -0.4514 C.ar    
  20 C20           -4.4715    -6.8007    -1.2133 C.ar    
  21 C21           -5.5743    -7.4847    -0.7209 C.ar    
  22 C22           -6.0792    -7.1762     0.5277 C.ar    
  23 C23           -5.4848    -6.1899     1.2915 C.ar    
  24 O24           -3.9758    -7.1043    -2.4416 O.3     
  25 C25           -4.6388    -8.1388    -3.1712 C.3     
  26 O26           -0.8242     2.5857     0.5816 O.2     
  27 O27           -0.0682     1.5940     2.7221 O.2     
  28 H28            3.0117     2.1023    -0.8812 H       
  29 H29            1.3216     2.5749    -1.1616 H       
  30 H30            2.0016     3.2300     1.1125 H       
  31 H31            2.4838     1.5487     1.4711 H       
  32 H32            0.9445    -3.1075    -2.1132 H       
  33 H33            2.7791    -1.7548    -3.0996 H       
  34 H34            3.1968     0.4802    -2.3451 H       
  35 H35            0.5688    -3.8217     0.6993 H       
  36 H36           -1.2596    -5.1179     1.7102 H       
  37 H37           -4.1080    -2.3373     0.1498 H       
  38 H38           -2.2869    -1.0268    -0.8561 H       
  39 H39           -3.0186    -5.2737    -0.8330 H       
  40 H40           -6.0384    -8.2585    -1.3144 H       
  41 H41           -6.9374    -7.7096     0.9090 H       
  42 H42           -5.8787    -5.9534     2.2689 H       
  43 H43           -4.1437    -8.2805    -4.1319 H       
  44 H44           -4.5996    -9.0674    -2.6018 H       
  45 H45           -5.6789    -7.8576    -3.3365 H       
@<TRIPOS>BOND
   1    1    2 am
   2    1    6 1
   3    1   26 2
   4    1   27 2
   5    2    3 2
   6    3    4 1
   7    3    7 1
   8    4    5 1
   9    4   10 1
  10    5    6 1
  11    5   28 1
  12    5   29 1
  13    6   30 1
  14    6   31 1
  15    7    8 2
  16    7   11 1
  17    8    9 1
  18    8   32 1
  19    9   10 2
  20    9   33 1
  21   10   34 1
  22   11   12 ar
  23   11   16 ar
  24   12   13 ar
  25   12   35 1
  26   13   14 ar
  27   13   36 1
  28   14   15 ar
  29   14   17 1
  30   15   16 ar
  31   15   37 1
  32   16   38 1
  33   17   18 1
  34   18   19 ar
  35   18   23 ar
  36   19   20 ar
  37   19   39 1
  38   20   21 ar
  39   20   24 1
  40   21   22 ar
  41   21   40 1
  42   22   23 ar
  43   22   41 1
  44   23   42 1
  45   24   25 1
  46   25   43 1
  47   25   44 1
  48   25   45 1

#	End of record

