#	Name: ASD01190131
#	Creating user name:	WinNT
#	Creation time:	15. 06. 2019 19:07

#	Modifying user name:	WinNT
#	Modification time:	15. 06. 2019 19:07

#	Program:	/corina/corina34_cracker 3.40 0067  02.08.2006

@<TRIPOS>MOLECULE
ASD01190131
  49   53    0    0    0
SMALL
NO_CHARGES


@<TRIPOS>ATOM
   1 C1            -0.0187     1.5258     0.0104 C.3     
   2 C2             0.5313     0.1143    -0.2046 C.3     
   3 C3             2.4703     5.6281     1.4453 C.ar    
   4 C4             2.2811     4.2882     1.1057 C.ar    
   5 C5             0.9889     3.8641     0.7432 C.ar    
   6 C6            -0.0506     4.8033     0.7387 C.ar    
   7 C7             0.2271     6.0935     1.0855 C.ar    
   8 N8             1.4515     6.4688     1.4230 N.ar    
   9 N9             3.1043     3.1880     1.0294 N.pl3   
  10 C10            1.0981     2.4390     0.4463 C.2     
  11 C11            2.3846     2.0959     0.6356 C.2     
  12 O12            3.7028     6.0676     1.8048 O.3     
  13 C13            3.8259     7.4513     2.1401 C.3     
  14 N14           -2.4685     3.4116    -4.6854 N.pl3   
  15 N15           -3.8006     3.3848    -4.2595 N.2     
  16 C16           -3.8692     2.9574    -3.0306 C.2     
  17 C17           -2.5105     2.6725    -2.5802 C.ar    
  18 C18           -1.9618     2.1991    -1.3831 C.ar    
  19 C19           -0.6108     2.0359    -1.2780 C.ar    
  20 C20            0.2238     2.3360    -2.3477 C.ar    
  21 C21           -0.2884     2.7999    -3.5263 C.ar    
  22 C22           -1.6626     2.9760    -3.6631 C.ar    
  23 C23           -2.0282     3.8127    -5.9534 C.ar    
  24 C24           -2.8000     3.5412    -7.0755 C.ar    
  25 C25           -2.3641     3.9374    -8.3246 C.ar    
  26 C26           -1.1582     4.6050    -8.4586 C.ar    
  27 C27           -0.3870     4.8768    -7.3409 C.ar    
  28 C28           -0.8221     4.4873    -6.0893 C.ar    
  29 F29           -0.7333     4.9914    -9.6814 F       
  30 F30            1.0810    -0.3593     0.9915 F       
  31 F31           -0.5055    -0.7335    -0.6092 F       
  32 F32            1.5211     0.1450    -1.1928 F       
  33 O33           -1.0297     1.4944     1.0198 O.3     
  34 H34           -1.0538     4.5114     0.4653 H       
  35 H35           -0.5684     6.8240     1.0846 H       
  36 H36            4.0542     3.1882     1.2257 H       
  37 H37            2.7888     1.1041     0.4965 H       
  38 H38            4.8596     7.6696     2.4081 H       
  39 H39            3.5363     8.0599     1.2835 H       
  40 H40            3.1756     7.6797     2.9846 H       
  41 H41           -4.7709     2.8360    -2.4487 H       
  42 H42           -2.6037     1.9644    -0.5469 H       
  43 H43            1.2906     2.2013    -2.2460 H       
  44 H44            0.3713     3.0298    -4.3499 H       
  45 H45           -3.7403     3.0202    -6.9715 H       
  46 H46           -2.9638     3.7261    -9.1975 H       
  47 H47            0.5532     5.3972    -7.4475 H       
  48 H48           -0.2227     4.7037    -5.2174 H       
  49 H49           -1.4238     2.3570     1.2087 H       
@<TRIPOS>BOND
   1    1    2 1
   2    1   10 1
   3    1   19 1
   4    1   33 1
   5    2   30 1
   6    2   31 1
   7    2   32 1
   8    3    4 ar
   9    3    8 ar
  10    3   12 1
  11    4    5 ar
  12    4    9 1
  13    5    6 ar
  14    5   10 1
  15    6    7 ar
  16    6   34 1
  17    7    8 ar
  18    7   35 1
  19    9   11 1
  20    9   36 1
  21   10   11 2
  22   11   37 1
  23   12   13 1
  24   13   38 1
  25   13   39 1
  26   13   40 1
  27   14   15 1
  28   14   22 1
  29   14   23 1
  30   15   16 2
  31   16   17 1
  32   16   41 1
  33   17   18 ar
  34   17   22 ar
  35   18   19 ar
  36   18   42 1
  37   19   20 ar
  38   20   21 ar
  39   20   43 1
  40   21   22 ar
  41   21   44 1
  42   23   24 ar
  43   23   28 ar
  44   24   25 ar
  45   24   45 1
  46   25   26 ar
  47   25   46 1
  48   26   27 ar
  49   26   29 1
  50   27   28 ar
  51   27   47 1
  52   28   48 1
  53   33   49 1

#	End of record

