#	Name: ASD01885420
#	Creating user name:	WinNT
#	Creation time:	15. 06. 2019 19:49

#	Modifying user name:	WinNT
#	Modification time:	15. 06. 2019 19:49

#	Program:	/corina/corina34_cracker 3.40 0067  02.08.2006

@<TRIPOS>MOLECULE
ASD01885420
  44   47    0    0    0
SMALL
NO_CHARGES


@<TRIPOS>ATOM
   1 C1            -0.1553     2.0860    -0.6410 C.ar    
   2 C2            -0.3089     0.6989    -0.6575 C.ar    
   3 N3            -1.5034     0.0737    -0.8061 N.2     
   4 C4            -2.4399     0.4043    -1.6192 C.2     
   5 C5            -2.3210     1.6069    -2.5182 C.3     
   6 C6            -2.2190     2.8348    -1.6490 C.2     
   7 N7            -1.2084     2.9792    -0.7927 N.am    
   8 C8             1.1143     2.6323    -0.4701 C.ar    
   9 C9             2.2263     1.8101    -0.3220 C.ar    
  10 C10            2.0712     0.4217    -0.3445 C.ar    
  11 C11            0.8234    -0.1239    -0.5094 C.ar    
  12 C12           -3.6627    -0.4141    -1.6749 C.ar    
  13 O13           -3.0646     3.7004    -1.7316 O.2     
  14 C14           -3.7340    -1.6180    -0.9660 C.ar    
  15 C15           -4.8799    -2.3859    -1.0178 C.ar    
  16 C16           -5.9629    -1.9726    -1.7681 C.ar    
  17 C17           -5.9066    -0.7721    -2.4818 C.ar    
  18 C18           -4.7562     0.0119    -2.4306 C.ar    
  19 C19           -7.0311    -0.3463    -3.2595 C.1     
  20 N20           -7.9231    -0.0085    -3.8765 N.1     
  21 C21            3.5702     2.4041    -0.1416 C.ar    
  22 C22            3.8190     3.2804     0.9314 C.ar    
  23 C23            5.0914     3.8323     1.0887 C.ar    
  24 C24            6.0940     3.5175     0.1958 C.ar    
  25 C25            5.8480     2.6547    -0.8601 C.ar    
  26 C26            4.5981     2.0949    -1.0293 C.ar    
  27 C27            2.7426     3.6135     1.8826 C.2     
  28 O28            1.6718     3.0436     1.8123 O.2     
  29 O29            2.9465     4.5501     2.8298 O.3     
  30 H30           -1.4271     1.5179    -3.1355 H       
  31 H31           -3.2029     1.6790    -3.1548 H       
  32 H32           -1.2086     3.7687    -0.2291 H       
  33 H33            1.2367     3.7052    -0.4528 H       
  34 H34            2.9321    -0.2207    -0.2325 H       
  35 H35            0.7086    -1.1977    -0.5263 H       
  36 H36           -2.8906    -1.9476    -0.3774 H       
  37 H37           -4.9296    -3.3147    -0.4689 H       
  38 H38           -6.8559    -2.5790    -1.8040 H       
  39 H39           -4.7076     0.9406    -2.9798 H       
  40 H40            5.2904     4.5058     1.9092 H       
  41 H41            7.0774     3.9465     0.3202 H       
  42 H42            6.6411     2.4155    -1.5531 H       
  43 H43            4.4147     1.4231    -1.8548 H       
  44 H44            2.2114     4.7342     3.4305 H       
@<TRIPOS>BOND
   1    1    2 ar
   2    1    8 ar
   3    1    7 1
   4    2    3 1
   5    2   11 ar
   6    3    4 2
   7    4    5 1
   8    4   12 1
   9    5    6 1
  10    5   30 1
  11    5   31 1
  12    6    7 am
  13    6   13 2
  14    7   32 1
  15    8    9 ar
  16    8   33 1
  17    9   10 ar
  18    9   21 1
  19   10   11 ar
  20   10   34 1
  21   11   35 1
  22   12   14 ar
  23   12   18 ar
  24   14   15 ar
  25   14   36 1
  26   15   16 ar
  27   15   37 1
  28   16   17 ar
  29   16   38 1
  30   17   18 ar
  31   17   19 1
  32   18   39 1
  33   19   20 3
  34   21   22 ar
  35   21   26 ar
  36   22   23 ar
  37   22   27 1
  38   23   24 ar
  39   23   40 1
  40   24   25 ar
  41   24   41 1
  42   25   26 ar
  43   25   42 1
  44   26   43 1
  45   27   28 2
  46   27   29 1
  47   29   44 1

#	End of record

