#	Name: ASD03331319
#	Creating user name:	WinNT
#	Creation time:	15. 06. 2019 20:39

#	Modifying user name:	WinNT
#	Modification time:	15. 06. 2019 20:39

#	Program:	/corina/corina34_cracker 3.40 0067  02.08.2006

@<TRIPOS>MOLECULE
ASD03331319
  52   54    0    0    0
SMALL
NO_CHARGES


@<TRIPOS>ATOM
   1 C1            -0.0871     1.1758     0.6069 C.ar    
   2 C2            -0.0752    -0.2930     0.4283 C.2     
   3 N3            -1.1602    -1.1077     0.4838 N.pl3   
   4 C4            -0.7297    -2.3790     0.2714 C.2     
   5 C5             0.6126    -2.3239     0.0871 C.2     
   6 N6             0.9867    -1.0282     0.1836 N.2     
   7 C7             1.5023    -3.4690    -0.1769 C.2     
   8 N8             2.8252    -3.2707    -0.3412 N.am    
   9 C9             0.5887     2.0148    -0.2871 C.ar    
  10 O10            1.0426    -4.5928    -0.2464 O.2     
  11 C11            3.7095    -4.4088    -0.6036 C.3     
  12 C12            3.7178    -4.7132    -2.1030 C.3     
  13 C13            5.1074    -4.0736    -0.1513 C.2     
  14 C14            4.1093    -3.4529    -2.8770 C.3     
  15 C15           -2.5657    -0.7658     0.7211 C.3     
  16 C16           -3.4267    -1.9569     0.2794 C.3     
  17 O17           -2.9006    -3.1667     0.8319 O.3     
  18 C18           -1.6481    -3.5740     0.2611 C.3     
  19 N19            5.9430    -5.0561     0.2397 N.am    
  20 C20            4.7291    -5.8242    -2.3923 C.3     
  21 C21            2.3231    -5.1668    -2.5390 C.3     
  22 C22            0.5508     3.3804    -0.0819 C.ar    
  23 N23           -0.1095     3.8935     0.9380 N.ar    
  24 C24           -0.7591     3.1382     1.8030 C.ar    
  25 C25           -0.7789     1.7653     1.6708 C.ar    
  26 O26            5.4805    -2.9196    -0.1393 O.2     
  27 C27            7.2617    -4.7228     0.7840 C.3     
  28 Cl28           1.4612     1.3494    -1.6324 Cl      
  29 H29            3.1918    -2.3743    -0.2857 H       
  30 H30            3.3505    -5.2813    -0.0577 H       
  31 H31            5.1029    -3.1297    -2.5664 H       
  32 H32            4.1152    -3.6697    -3.9452 H       
  33 H33            3.3888    -2.6613    -2.6709 H       
  34 H34           -2.7231    -0.5710     1.7820 H       
  35 H35           -2.8329     0.1171     0.1404 H       
  36 H36           -4.4494    -1.8140     0.6284 H       
  37 H37           -3.4222    -2.0235    -0.8086 H       
  38 H38           -1.8018    -3.9132    -0.7633 H       
  39 H39           -1.2149    -4.3780     0.8562 H       
  40 H40            5.6713    -5.9839     0.1608 H       
  41 H41            4.4195    -6.7383    -1.8857 H       
  42 H42            4.7759    -6.0022    -3.4666 H       
  43 H43            5.7124    -5.5236    -2.0306 H       
  44 H44            1.6026    -4.3753    -2.3329 H       
  45 H45            2.3290    -5.3836    -3.6072 H       
  46 H46            2.0442    -6.0647    -1.9875 H       
  47 H47            1.0691     4.0365    -0.7655 H       
  48 H48           -1.2865     3.6018     2.6236 H       
  49 H49           -1.3133     1.1538     2.3828 H       
  50 H50            7.7904    -5.6402     1.0429 H       
  51 H51            7.8341    -4.1718     0.0377 H       
  52 H52            7.1417    -4.1084     1.6763 H       
@<TRIPOS>BOND
   1    1    2 1
   2    1    9 ar
   3    1   25 ar
   4    2    3 1
   5    2    6 2
   6    3    4 1
   7    3   15 1
   8    4    5 2
   9    4   18 1
  10    5    6 1
  11    5    7 1
  12    7    8 am
  13    7   10 2
  14    8   11 1
  15    8   29 1
  16    9   22 ar
  17    9   28 1
  18   11   12 1
  19   11   13 1
  20   11   30 1
  21   12   14 1
  22   12   20 1
  23   12   21 1
  24   13   19 am
  25   13   26 2
  26   14   31 1
  27   14   32 1
  28   14   33 1
  29   15   16 1
  30   15   34 1
  31   15   35 1
  32   16   17 1
  33   16   36 1
  34   16   37 1
  35   17   18 1
  36   18   38 1
  37   18   39 1
  38   19   27 1
  39   19   40 1
  40   20   41 1
  41   20   42 1
  42   20   43 1
  43   21   44 1
  44   21   45 1
  45   21   46 1
  46   22   23 ar
  47   22   47 1
  48   23   24 ar
  49   24   25 ar
  50   24   48 1
  51   25   49 1
  52   27   50 1
  53   27   51 1
  54   27   52 1

#	End of record

