#	Name: ASD03080018
#	Creating user name:	WinNT
#	Creation time:	15. 06. 2019 20:26

#	Modifying user name:	WinNT
#	Modification time:	15. 06. 2019 20:26

#	Program:	/corina/corina34_cracker 3.40 0067  02.08.2006

@<TRIPOS>MOLECULE
ASD03080018
  26   28    0    0    0
SMALL
NO_CHARGES


@<TRIPOS>ATOM
   1 O1            -0.0144     1.2085     0.0087 O.3     
   2 N2             0.0021    -0.0041     0.0020 N.2     
   3 C3             1.2348    -0.4423    -0.0121 C.2     
   4 N4             2.0459     0.6361    -0.0141 N.2     
   5 C5             1.2412     1.6828    -0.0008 C.2     
   6 C6             3.0153    -2.1959    -0.0374 C.ar    
   7 C7             1.6624    -1.8638    -0.0231 C.ar    
   8 C8             0.7145    -2.8902    -0.0188 C.ar    
   9 C9             1.1644    -4.1996    -0.0290 C.ar    
  10 C10            2.5247    -4.4473    -0.0429 C.ar    
  11 N11            3.3961    -3.4568    -0.0462 N.ar    
  12 C12            1.6454     3.1035     0.0026 C.ar    
  13 C13            0.6743     4.1096     0.0173 C.ar    
  14 C14            1.0591     5.4369     0.0203 C.ar    
  15 C15            2.4020     5.7710     0.0088 C.ar    
  16 C16            3.3698     4.7773    -0.0063 C.ar    
  17 C17            2.9984     3.4474    -0.0032 C.ar    
  18 F18            4.6788     5.1115    -0.0184 F       
  19 F19           -0.6370     3.7848     0.0281 F       
  20 Cl20           2.8774     7.4406     0.0126 Cl      
  21 H21            3.7585    -1.4124    -0.0453 H       
  22 H22           -0.3423    -2.6679    -0.0075 H       
  23 H23            0.4605    -5.0187    -0.0257 H       
  24 H24            2.8793    -5.4673    -0.0509 H       
  25 H25            0.3102     6.2151     0.0313 H       
  26 H26            3.7530     2.6748    -0.0097 H       
@<TRIPOS>BOND
   1    1    2 1
   2    1    5 1
   3    2    3 2
   4    3    4 1
   5    3    7 1
   6    4    5 2
   7    5   12 1
   8    6    7 ar
   9    6   11 ar
  10    6   21 1
  11    7    8 ar
  12    8    9 ar
  13    8   22 1
  14    9   10 ar
  15    9   23 1
  16   10   11 ar
  17   10   24 1
  18   12   13 ar
  19   12   17 ar
  20   13   14 ar
  21   13   19 1
  22   14   15 ar
  23   14   25 1
  24   15   16 ar
  25   15   20 1
  26   16   17 ar
  27   16   18 1
  28   17   26 1

#	End of record

