#	Name: ASD05720011
#	Creating user name:	WinNT
#	Creation time:	15. 06. 2019 21:01

#	Modifying user name:	WinNT
#	Modification time:	15. 06. 2019 21:01

#	Program:	/corina/corina34_cracker 3.40 0067  02.08.2006

@<TRIPOS>MOLECULE
ASD05720011
  18   19    0    0    0
SMALL
NO_CHARGES


@<TRIPOS>ATOM
   1 N1            -0.0170     1.4001     0.0097 N.pl3   
   2 N2             0.0021    -0.0041     0.0020 N.2     
   3 C3             1.2578    -0.3692    -0.0119 C.2     
   4 N4             2.0288     0.7147    -0.0135 N.2     
   5 C5             1.2764     1.7964    -0.0005 C.2     
   6 C6             1.7598     3.1946     0.0017 C.ar    
   7 C7             3.1303     3.4625    -0.0099 C.ar    
   8 C8             3.5748     4.7697    -0.0078 C.ar    
   9 C9             2.6647     5.8127     0.0063 C.ar    
  10 C10            1.3051     5.5525     0.0178 C.ar    
  11 C11            0.8485     4.2506     0.0095 C.ar    
  12 Cl12           4.2724     2.1552    -0.0263 Cl      
  13 Br13           3.2813     7.6004     0.0103 Br      
  14 H14           -0.8008     1.9716     0.0167 H       
  15 H15            1.6127    -1.3892    -0.0205 H       
  16 H16            4.6343     4.9789    -0.0167 H       
  17 H17            0.6001     6.3706     0.0287 H       
  18 H18           -0.2126     4.0494     0.0140 H       
@<TRIPOS>BOND
   1    1    2 1
   2    1    5 1
   3    1   14 1
   4    2    3 2
   5    3    4 1
   6    3   15 1
   7    4    5 2
   8    5    6 1
   9    6    7 ar
  10    6   11 ar
  11    7    8 ar
  12    7   12 1
  13    8    9 ar
  14    8   16 1
  15    9   10 ar
  16    9   13 1
  17   10   11 ar
  18   10   17 1
  19   11   18 1

#	End of record

