#	Name: ASD02039331
#	Creating user name:	WinNT
#	Creation time:	15. 06. 2019 20:18

#	Modifying user name:	WinNT
#	Modification time:	15. 06. 2019 20:18

#	Program:	/corina/corina34_cracker 3.40 0067  02.08.2006

@<TRIPOS>MOLECULE
ASD02039331
  53   55    0    0    0
SMALL
NO_CHARGES


@<TRIPOS>ATOM
   1 C1            -0.2134     1.6476     0.3330 C.ar    
   2 C2             0.1855     0.3210     0.4101 C.ar    
   3 C3            -0.7639    -0.6613     0.6251 C.ar    
   4 C4            -2.4589     0.9038     0.7011 C.ar    
   5 C5            -1.5578     1.9430     0.4811 C.ar    
   6 C6            -3.9028     1.2038     0.8613 C.ar    
   7 C7             0.7949     2.7430     0.0997 C.3     
   8 N8             1.0365     2.8861    -1.3382 N.am    
   9 C9             0.1371     3.7057    -2.1541 C.3     
  10 C10            2.0861     2.2637    -1.9104 C.2     
  11 C11            2.9256     1.3520    -1.1139 C.2     
  12 C12            3.9419     0.5732    -1.5848 C.2     
  13 N13            2.8327     1.1381     0.2235 N.2     
  14 C14            3.7361     0.2693     0.5747 C.2     
  15 N15            4.4428    -0.1027    -0.5242 N.pl3   
  16 O16            2.3403     2.4548    -3.0843 O.2     
  17 C17            5.5482    -1.0636    -0.5561 C.3     
  18 C18           -4.8445     0.5553     0.0645 C.ar    
  19 N19           -2.0379    -0.3533     0.7566 N.ar    
  20 C20            0.9000     4.9171    -2.6939 C.3     
  21 C21           -0.3912     2.8730    -3.3239 C.3     
  22 C22           -4.3232     2.1308     1.8132 C.ar    
  23 C23           -5.6678     2.4060     1.9578 C.ar    
  24 C24           -6.5976     1.7636     1.1603 C.ar    
  25 C25           -6.1865     0.8383     0.2178 C.ar    
  26 C26           -4.3981    -0.4527    -0.9630 C.3     
  27 C27           -3.3114     2.8312     2.6831 C.3     
  28 H28            1.2275     0.0579     0.3029 H       
  29 H29           -0.4567    -1.6949     0.6856 H       
  30 H30           -1.9018     2.9658     0.4362 H       
  31 H31            0.4106     3.6817     0.4987 H       
  32 H32            1.7288     2.4901     0.6016 H       
  33 H33           -0.6991     4.0456    -1.5431 H       
  34 H34            4.2815     0.5081    -2.6080 H       
  35 H35            3.8996    -0.0947     1.5783 H       
  36 H36            5.1547    -2.0643    -0.7348 H       
  37 H37            6.2389    -0.7966    -1.3559 H       
  38 H38            6.0735    -1.0449     0.3989 H       
  39 H39            1.6539     4.5835    -3.4069 H       
  40 H40            0.2039     5.5930    -3.1906 H       
  41 H41            1.3857     5.4378    -1.8686 H       
  42 H42           -0.8382     1.9545    -2.9434 H       
  43 H43           -1.1434     3.4454    -3.8667 H       
  44 H44            0.4315     2.6259    -3.9948 H       
  45 H45           -5.9947     3.1241     2.6954 H       
  46 H46           -7.6489     1.9818     1.2771 H       
  47 H47           -6.9168     0.3399    -0.4025 H       
  48 H48           -4.2744    -1.4257    -0.4876 H       
  49 H49           -5.1484    -0.5256    -1.7503 H       
  50 H50           -3.4485    -0.1357    -1.3943 H       
  51 H51           -3.0043     3.7619     2.2062 H       
  52 H52           -3.7563     3.0499     3.6539 H       
  53 H53           -2.4417     2.1882     2.8186 H       
@<TRIPOS>BOND
   1    1    2 ar
   2    1    7 1
   3    1    5 ar
   4    2    3 ar
   5    2   28 1
   6    3   19 ar
   7    3   29 1
   8    4    5 ar
   9    4    6 1
  10    4   19 ar
  11    5   30 1
  12    6   18 ar
  13    6   22 ar
  14    7    8 1
  15    7   31 1
  16    7   32 1
  17    8    9 1
  18    8   10 am
  19    9   21 1
  20    9   20 1
  21    9   33 1
  22   10   11 1
  23   10   16 2
  24   11   12 2
  25   11   13 1
  26   12   15 1
  27   12   34 1
  28   13   14 2
  29   14   15 1
  30   14   35 1
  31   15   17 1
  32   17   36 1
  33   17   37 1
  34   17   38 1
  35   18   26 1
  36   18   25 ar
  37   20   39 1
  38   20   40 1
  39   20   41 1
  40   21   42 1
  41   21   43 1
  42   21   44 1
  43   22   23 ar
  44   22   27 1
  45   23   24 ar
  46   23   45 1
  47   24   25 ar
  48   24   46 1
  49   25   47 1
  50   26   48 1
  51   26   49 1
  52   26   50 1
  53   27   51 1
  54   27   52 1
  55   27   53 1

#	End of record

