#	Name: ASD01883726
#	Creating user name:	WinNT
#	Creation time:	15. 06. 2019 19:46

#	Modifying user name:	WinNT
#	Modification time:	15. 06. 2019 19:46

#	Program:	/corina/corina34_cracker 3.40 0067  02.08.2006

@<TRIPOS>MOLECULE
ASD01883726
  54   57    0    0    0
SMALL
NO_CHARGES


@<TRIPOS>ATOM
   1 C1            -0.4070     0.7384    -1.1126 C.2     
   2 C2             0.0021    -0.0041     0.0020 C.2     
   3 C3            -0.8269    -0.0436     1.1386 C.2     
   4 C4            -1.9990     0.6181     1.1664 C.2     
   5 N5            -2.4375     1.3532     0.1042 N.pl3   
   6 C6            -1.6865     1.4486    -1.0386 C.2     
   7 C7            -3.5720     2.0989    -0.1027 C.2     
   8 C8            -3.4873     2.6148    -1.3454 C.2     
   9 N9            -2.3371     2.2111    -1.8983 N.2     
  10 C10           -4.7001     2.3019     0.8756 C.3     
  11 C11           -5.8074     1.2838     0.5957 C.3     
  12 N12            1.2030    -0.6889    -0.0141 N.pl3   
  13 F13           -5.2964    -0.0111     0.7354 F       
  14 F14           -6.8547     1.4723     1.5039 F       
  15 F15           -6.2834     1.4592    -0.7080 F       
  16 C16            1.2305    -2.1543     0.0880 C.3     
  17 C17            2.1618    -2.5511     1.2378 C.3     
  18 C18            3.5346    -1.9102     1.0215 C.3     
  19 C19            3.3932    -0.3864     1.0183 C.3     
  20 C20            2.4756     0.0345    -0.1397 C.3     
  21 C21            4.4635    -2.3260     2.1329 C.ar    
  22 C22            4.1541    -2.0178     3.4439 C.ar    
  23 C23            5.0050    -2.3989     4.4650 C.ar    
  24 C24            6.1681    -3.0889     4.1779 C.ar    
  25 C25            6.4829    -3.4001     2.8673 C.ar    
  26 C26            5.6262    -3.0229     1.8410 C.ar    
  27 O27            5.9324    -3.3270     0.5518 O.3     
  28 C28            5.4565    -4.5774     0.0496 C.3     
  29 C29            5.8960    -4.7427    -1.4065 C.3     
  30 F30            7.2912    -4.8269    -1.4658 F       
  31 F31            7.6196    -4.0739     2.5863 F       
  32 C32            0.4055     0.8066    -2.2898 C.1     
  33 N33            1.0500     0.8606    -3.2237 N.1     
  34 H34           -0.5180    -0.6142     2.0020 H       
  35 H35           -2.6099     0.5652     2.0554 H       
  36 H36           -4.2232     3.2506    -1.8152 H       
  37 H37           -4.3292     2.1653     1.8914 H       
  38 H38           -5.0982     3.3108     0.7668 H       
  39 H39            0.2253    -2.5257     0.2872 H       
  40 H40            1.6008    -2.5787    -0.8452 H       
  41 H41            1.7426    -2.2033     2.1820 H       
  42 H42            2.2666    -3.6358     1.2634 H       
  43 H43            3.9423    -2.2391     0.0656 H       
  44 H44            2.9625    -0.0590     1.9645 H       
  45 H45            4.3745     0.0697     0.8875 H       
  46 H46            2.9498    -0.2117    -1.0897 H       
  47 H47            2.2912     1.1076    -0.0883 H       
  48 H48            3.2466    -1.4783     3.6713 H       
  49 H49            4.7607    -2.1567     5.4888 H       
  50 H50            6.8314    -3.3848     4.9772 H       
  51 H51            5.8687    -5.3898     0.6480 H       
  52 H52            4.3682    -4.6009     0.1055 H       
  53 H53            5.4593    -5.6533    -1.8167 H       
  54 H54            5.5588    -3.8843    -1.9876 H       
@<TRIPOS>BOND
   1    1    2 2
   2    1   32 1
   3    1    6 1
   4    2    3 1
   5    2   12 1
   6    3    4 2
   7    3   34 1
   8    4    5 1
   9    4   35 1
  10    5    6 1
  11    5    7 1
  12    6    9 2
  13    7    8 2
  14    7   10 1
  15    8    9 1
  16    8   36 1
  17   10   11 1
  18   10   37 1
  19   10   38 1
  20   11   13 1
  21   11   14 1
  22   11   15 1
  23   12   16 1
  24   12   20 1
  25   16   17 1
  26   16   39 1
  27   16   40 1
  28   17   18 1
  29   17   41 1
  30   17   42 1
  31   18   19 1
  32   18   21 1
  33   18   43 1
  34   19   20 1
  35   19   44 1
  36   19   45 1
  37   20   46 1
  38   20   47 1
  39   21   22 ar
  40   21   26 ar
  41   22   23 ar
  42   22   48 1
  43   23   24 ar
  44   23   49 1
  45   24   25 ar
  46   24   50 1
  47   25   26 ar
  48   25   31 1
  49   26   27 1
  50   27   28 1
  51   28   29 1
  52   28   51 1
  53   28   52 1
  54   29   30 1
  55   29   53 1
  56   29   54 1
  57   32   33 3

#	End of record

