#	Name: ASD01811124
#	Creating user name:	WinNT
#	Creation time:	15. 06. 2019 19:26

#	Modifying user name:	WinNT
#	Modification time:	15. 06. 2019 19:26

#	Program:	/corina/corina34_cracker 3.40 0067  02.08.2006

@<TRIPOS>MOLECULE
ASD01811124
  52   55    0    0    0
SMALL
NO_CHARGES


@<TRIPOS>ATOM
   1 C1            -0.5740     0.7396     0.5146 C.2     
   2 C2            -0.4158    -0.6413     0.3358 C.2     
   3 C3             0.8398    -1.1719     0.2816 C.2     
   4 C4             1.9534    -0.3246     0.4059 C.2     
   5 N5             1.7697     1.0203     0.5801 N.am    
   6 C6             0.5100     1.5392     0.6324 C.2     
   7 C7             3.2449    -0.8674     0.3506 C.2     
   8 C8             4.3335    -0.0532     0.4708 C.2     
   9 C9             4.1408     1.3293     0.6493 C.2     
  10 C10            2.8296     1.8448     0.7012 C.2     
  11 O11            2.6533     3.0416     0.8551 O.2     
  12 C12            5.2922     2.2247     0.7813 C.2     
  13 O13            5.1008     3.5490     0.9522 O.3     
  14 O14            6.4213     1.7741     0.7369 O.2     
  15 C15            3.4311    -2.3505     0.1589 C.3     
  16 N16            3.6280    -2.6389    -1.2680 N.3     
  17 C17            4.1721    -3.9924    -1.4623 C.3     
  18 C18            4.6957    -4.1038    -2.8945 C.3     
  19 C19            3.6432    -3.6332    -3.8652 C.ar    
  20 C20            2.5663    -2.8773    -3.4545 C.ar    
  21 C21            2.3746    -2.4842    -2.0132 C.3     
  22 C22            3.7758    -3.9764    -5.2023 C.ar    
  23 C23            2.8360    -3.5631    -6.1249 C.ar    
  24 C24            1.7567    -2.8029    -5.7139 C.ar    
  25 C25            1.6234    -2.4615    -4.3833 C.ar    
  26 C26            5.2998    -4.2290    -0.4910 C.2     
  27 O27            6.0291    -3.3178    -0.1785 O.2     
  28 O28            5.4940    -5.4520     0.0269 O.3     
  29 C29            6.6622    -7.0577     1.4366 C.3     
  30 C30            6.5992    -5.6066     0.9558 C.3     
  31 H31           -1.5650     1.1671     0.5540 H       
  32 H32           -1.2812    -1.2806     0.2420 H       
  33 H33            0.9766    -2.2344     0.1445 H       
  34 H34            0.3763     2.6020     0.7702 H       
  35 H35            5.3310    -0.4650     0.4298 H       
  36 H36            5.8913     4.0999     1.0345 H       
  37 H37            4.3042    -2.6827     0.7206 H       
  38 H38            2.5466    -2.8770     0.5174 H       
  39 H39            3.3857    -4.7298    -1.3015 H       
  40 H40            5.5887    -3.4881    -3.0022 H       
  41 H41            4.9465    -5.1428    -3.1082 H       
  42 H42            1.6087    -3.1177    -1.5658 H       
  43 H43            2.0519    -1.4442    -1.9633 H       
  44 H44            4.6190    -4.5700    -5.5235 H       
  45 H45            2.9436    -3.8325    -7.1652 H       
  46 H46            1.0195    -2.4768    -6.4327 H       
  47 H47            0.7801    -1.8675    -4.0633 H       
  48 H48            7.4918    -7.1738     2.1339 H       
  49 H49            5.7285    -7.3157     1.9365 H       
  50 H50            6.8110    -7.7175     0.5818 H       
  51 H51            7.5328    -5.3486     0.4559 H       
  52 H52            6.4504    -4.9468     1.8106 H       
@<TRIPOS>BOND
   1    1    2 1
   2    1    6 2
   3    1   31 1
   4    2    3 2
   5    2   32 1
   6    3    4 1
   7    3   33 1
   8    4    5 1
   9    4    7 2
  10    5    6 1
  11    5   10 am
  12    6   34 1
  13    7    8 1
  14    7   15 1
  15    8    9 2
  16    8   35 1
  17    9   10 1
  18    9   12 1
  19   10   11 2
  20   12   13 1
  21   12   14 2
  22   13   36 1
  23   15   16 1
  24   15   37 1
  25   15   38 1
  26   16   17 1
  27   16   21 1
  28   17   18 1
  29   17   26 1
  30   17   39 1
  31   18   19 1
  32   18   40 1
  33   18   41 1
  34   19   20 ar
  35   19   22 ar
  36   20   21 1
  37   20   25 ar
  38   21   42 1
  39   21   43 1
  40   22   23 ar
  41   22   44 1
  42   23   24 ar
  43   23   45 1
  44   24   25 ar
  45   24   46 1
  46   25   47 1
  47   26   27 2
  48   26   28 1
  49   28   30 1
  50   29   30 1
  51   29   48 1
  52   29   49 1
  53   29   50 1
  54   30   51 1
  55   30   52 1

#	End of record

