#	Name: ASD01910783
#	Creating user name:	WinNT
#	Creation time:	15. 06. 2019 19:56

#	Modifying user name:	WinNT
#	Modification time:	15. 06. 2019 19:56

#	Program:	/corina/corina34_cracker 3.40 0067  02.08.2006

@<TRIPOS>MOLECULE
ASD01910783
  51   54    0    0    0
SMALL
NO_CHARGES


@<TRIPOS>ATOM
   1 C1            -0.2079     1.1645     0.9238 C.ar    
   2 C2             0.1394     0.6168    -0.3038 C.ar    
   3 C3             1.4229     0.1275    -0.4691 C.ar    
   4 C4             2.3168     0.2005     0.5941 C.ar    
   5 N5             1.9471     0.7301     1.7502 N.ar    
   6 C6             0.7301     1.2048     1.9361 C.ar    
   7 N7             3.6095    -0.2873     0.4419 N.3     
   8 C8             4.5959     0.7971     0.5366 C.3     
   9 C9             5.9844     0.2523     0.1853 C.3     
  10 N10            6.2583    -0.9139     1.0386 N.am    
  11 C11            5.2493    -1.9821     1.1021 C.3     
  12 C12            3.8897    -1.3493     1.4174 C.3     
  13 C13            7.4038    -1.0016     1.7433 C.2     
  14 C14            8.4649     0.0116     1.5587 C.ar    
  15 O15            7.5647    -1.9137     2.5306 O.2     
  16 C16            9.2142     0.4476     2.6538 C.ar    
  17 C17           10.2055     1.3943     2.4841 C.ar    
  18 C18           10.4634     1.9165     1.2329 C.ar    
  19 C19            9.7211     1.4893     0.1273 C.ar    
  20 C20            8.7229     0.5290     0.2913 C.ar    
  21 C21            9.9888     2.0324    -1.1704 C.1     
  22 C22           10.2082     2.4776    -2.2343 C.1     
  23 C23           10.4759     3.0207    -3.5320 C.ar    
  24 N24            9.7662     2.6100    -4.5786 N.ar    
  25 C25            9.9823     3.0854    -5.7878 C.ar    
  26 C26           10.9616     4.0353    -6.0137 C.ar    
  27 C27           11.7269     4.4930    -4.9493 C.ar    
  28 C28           11.4773     3.9828    -3.6884 C.ar    
  29 C29            4.2230     1.9134    -0.4411 C.3     
  30 H30           -1.2004     1.5591     1.0838 H       
  31 H31           -0.5763     0.5733    -1.1114 H       
  32 H32            1.7265    -0.3055    -1.4107 H       
  33 H33            0.4641     1.6296     2.8927 H       
  34 H34            4.6064     1.1915     1.5527 H       
  35 H35            6.0057    -0.0475    -0.8625 H       
  36 H36            6.7356     1.0215     0.3643 H       
  37 H37            5.1999    -2.4967     0.1425 H       
  38 H38            5.5145    -2.6901     1.8872 H       
  39 H39            3.9100    -0.9250     2.4212 H       
  40 H40            3.1119    -2.1107     1.3596 H       
  41 H41            9.0177     0.0436     3.6359 H       
  42 H42           10.7813     1.7277     3.3348 H       
  43 H43           11.2398     2.6567     1.1075 H       
  44 H44            8.1464     0.1952    -0.5587 H       
  45 H45            9.3864     2.7281    -6.6147 H       
  46 H46           11.1300     4.4176    -7.0096 H       
  47 H47           12.4975     5.2341    -5.1021 H       
  48 H48           12.0535     4.3169    -2.8383 H       
  49 H49            3.2809     2.3666    -0.1328 H       
  50 H50            5.0069     2.6708    -0.4439 H       
  51 H51            4.1157     1.4979    -1.4430 H       
@<TRIPOS>BOND
   1    1    2 ar
   2    1    6 ar
   3    1   30 1
   4    2    3 ar
   5    2   31 1
   6    3    4 ar
   7    3   32 1
   8    4    5 ar
   9    4    7 1
  10    5    6 ar
  11    6   33 1
  12    7    8 1
  13    7   12 1
  14    8    9 1
  15    8   29 1
  16    8   34 1
  17    9   10 1
  18    9   35 1
  19    9   36 1
  20   10   11 1
  21   10   13 am
  22   11   12 1
  23   11   37 1
  24   11   38 1
  25   12   39 1
  26   12   40 1
  27   13   14 1
  28   13   15 2
  29   14   16 ar
  30   14   20 ar
  31   16   17 ar
  32   16   41 1
  33   17   18 ar
  34   17   42 1
  35   18   19 ar
  36   18   43 1
  37   19   20 ar
  38   19   21 1
  39   20   44 1
  40   21   22 3
  41   22   23 1
  42   23   24 ar
  43   23   28 ar
  44   24   25 ar
  45   25   26 ar
  46   25   45 1
  47   26   27 ar
  48   26   46 1
  49   27   28 ar
  50   27   47 1
  51   28   48 1
  52   29   49 1
  53   29   50 1
  54   29   51 1

#	End of record

