#	Name: ASD02320029
#	Creating user name:	WinNT
#	Creation time:	15. 06. 2019 20:20

#	Modifying user name:	WinNT
#	Modification time:	15. 06. 2019 20:20

#	Program:	/corina/corina34_cracker 3.40 0067  02.08.2006

@<TRIPOS>MOLECULE
ASD02320029
  65   67    0    0    0
SMALL
NO_CHARGES


@<TRIPOS>ATOM
   1 C1             1.2656    -1.3590     1.3299 C.ar    
   2 C2             1.5471    -2.2369     0.3015 C.ar    
   3 C3             2.5646    -1.9450    -0.5912 C.ar    
   4 C4             3.3059    -0.7735    -0.4595 C.ar    
   5 C5             3.0338     0.0969     0.5710 C.ar    
   6 C6             2.0051    -0.1967     1.4647 C.ar    
   7 C7             4.3819    -0.5033    -1.4810 C.3     
   8 N8             5.2192     0.6145    -1.0330 N.am    
   9 C9             4.5336     1.7949    -0.4816 C.3     
  10 C10            3.8131     1.3659     0.7956 C.3     
  11 C11            6.5631     0.5630    -1.1223 C.2     
  12 O12            7.2274     1.5377    -0.8402 O.2     
  13 C13           10.9363    -1.5809    -2.0574 C.ar    
  14 C14           11.6714    -1.7586    -0.8945 C.ar    
  15 C15           11.5733    -1.2216    -3.2289 C.ar    
  16 C16           12.9483    -1.0385    -3.2428 C.ar    
  17 C17           13.6832    -1.2162    -2.0803 C.ar    
  18 C18           13.0460    -1.5756    -0.9084 C.ar    
  19 O19           11.0442    -2.1119     0.2591 O.3     
  20 S20           10.9337    -3.6154     0.4684 S.o2    
  21 O21           10.0897    -3.8027     1.5961 O.2     
  22 O22           10.6626    -4.1792    -0.8075 O.2     
  23 O23           12.3122    -4.1161     0.8754 O.3     
  24 Na24          12.8106    -3.6792     2.7518 Du      
  25 O25           13.5755    -0.6851    -4.3964 O.3     
  26 S26           13.6855     0.8184    -4.6058 S.o2    
  27 O27           14.1740     1.0048    -5.9271 O.2     
  28 O28           12.4645     1.3784    -4.1424 O.2     
  29 O29           14.7734     1.3252    -3.6699 O.3     
  30 Na30          16.6216     0.8942    -4.2685 Du      
  31 O31            2.8423    -2.8091    -1.6038 O.3     
  32 S32            2.0614    -2.5370    -2.8815 S.o2    
  33 O33            2.3172    -3.6329    -3.7492 O.2     
  34 O34            0.7538    -2.1535    -2.4785 O.2     
  35 O35            2.6846    -1.3139    -3.5387 O.3     
  36 Na36           4.4270    -1.6736    -4.4303 Du      
  37 O37            1.7257     0.6662     2.4778 O.3     
  38 S38            0.6959     1.7283     2.1201 S.o2    
  39 O39            0.6756     2.6483     3.2028 O.2     
  40 O40            0.9651     2.1125     0.7787 O.2     
  41 O41           -0.6661     1.0491     2.1075 O.3     
  42 Na42          -1.3910     0.6555     3.9185 Du      
  43 C43            7.2402    -0.7058    -1.5726 C.3     
  44 C44            8.7559    -0.4977    -1.5865 C.3     
  45 C45            9.4434    -1.7858    -2.0437 C.3     
  46 C46            5.5428     2.8675    -0.1618 C.2     
  47 O47            6.3195     2.7135     0.7508 O.2     
  48 O48            5.5787     3.9940    -0.8908 O.3     
  49 Na49           6.9465     5.3503    -0.3911 Du      
  50 H50            0.4677    -1.5766     2.0244 H       
  51 H51            0.9763    -3.1475     0.1943 H       
  52 H52            4.9994    -1.3934    -1.6015 H       
  53 H53            3.9205    -0.2509    -2.4357 H       
  54 H54            3.8100     2.1721    -1.2042 H       
  55 H55            3.1292     2.1567     1.1042 H       
  56 H56            4.5479     1.2007     1.5835 H       
  57 H57           11.0010    -1.0835    -4.1343 H       
  58 H58           14.7538    -1.0740    -2.0912 H       
  59 H59           13.6184    -1.7144    -0.0031 H       
  60 H60            6.9907    -1.5143    -0.8856 H       
  61 H61            6.8996    -0.9631    -2.5756 H       
  62 H62            9.0054     0.3109    -2.2736 H       
  63 H63            9.0965    -0.2403    -0.5836 H       
  64 H64            9.1028    -2.0432    -3.0466 H       
  65 H65            9.1939    -2.5944    -1.3566 H       
@<TRIPOS>BOND
   1    1    2 ar
   2    1    6 ar
   3    1   50 1
   4    2    3 ar
   5    2   51 1
   6    3    4 ar
   7    3   31 1
   8    4    5 ar
   9    4    7 1
  10    5    6 ar
  11    5   10 1
  12    6   37 1
  13    7    8 1
  14    7   52 1
  15    7   53 1
  16    8    9 1
  17    8   11 am
  18    9   10 1
  19    9   46 1
  20    9   54 1
  21   10   55 1
  22   10   56 1
  23   11   12 2
  24   11   43 1
  25   13   14 ar
  26   13   15 ar
  27   13   45 1
  28   14   19 1
  29   14   18 ar
  30   15   16 ar
  31   15   57 1
  32   16   17 ar
  33   16   25 1
  34   17   18 ar
  35   17   58 1
  36   18   59 1
  37   19   20 1
  38   20   21 2
  39   20   22 2
  40   20   23 1
  41   23   24 1
  42   25   26 1
  43   26   27 2
  44   26   28 2
  45   26   29 1
  46   29   30 1
  47   31   32 1
  48   32   33 2
  49   32   34 2
  50   32   35 1
  51   35   36 1
  52   37   38 1
  53   38   39 2
  54   38   40 2
  55   38   41 1
  56   41   42 1
  57   43   44 1
  58   43   60 1
  59   43   61 1
  60   44   45 1
  61   44   62 1
  62   44   63 1
  63   45   64 1
  64   45   65 1
  65   46   47 2
  66   46   48 1
  67   48   49 1

#	End of record

