#	Name: ASD05250030
#	Creating user name:	WinNT
#	Creation time:	15. 06. 2019 20:58

#	Modifying user name:	WinNT
#	Modification time:	15. 06. 2019 20:58

#	Program:	/corina/corina34_cracker 3.40 0067  02.08.2006

@<TRIPOS>MOLECULE
ASD05250030
  65   66    0    0    0
SMALL
NO_CHARGES


@<TRIPOS>ATOM
   1 C1             1.6516    -1.6708     2.1324 C.3     
   2 C2             0.8671    -1.2667     0.8823 C.3     
   3 N3             1.1508    -2.2198    -0.2000 N.3     
   4 C4             0.7893    -3.5869     0.2004 C.3     
   5 C5             1.5745    -3.9719     1.4562 C.3     
   6 N6             1.2624    -3.0280     2.5375 N.4     
   7 C7             0.4589    -1.8331    -1.4368 C.3     
   8 C8             1.2842    -2.2817    -2.6445 C.3     
   9 C9             2.6372    -1.5673    -2.6313 C.3     
  10 O10            0.5849    -1.9551    -3.8472 O.3     
  11 C11            1.5021    -3.7714    -2.5787 C.ar    
  12 C12            2.0025    -3.4086     3.7480 C.3     
  13 C13           -0.1797    -3.0613     2.8151 C.3     
  14 C14            0.5682    -4.6313    -3.1260 C.ar    
  15 C15            0.7680    -5.9978    -3.0656 C.ar    
  16 C16            1.9018    -6.5044    -2.4584 C.ar    
  17 C17            2.8361    -5.6444    -1.9120 C.ar    
  18 C18            2.6384    -4.2778    -1.9762 C.ar    
  19 C19            3.4446    -1.9814    -3.8632 C.3     
  20 C20            4.7975    -1.2671    -3.8500 C.3     
  21 C21            4.5753     0.2465    -3.8710 C.3     
  22 C22            3.7679     0.6606    -2.6391 C.3     
  23 C23            2.4150    -0.0537    -2.6523 C.3     
  24 H24            2.7193    -1.6489     1.9142 H       
  25 H25            1.4315    -0.9733     2.9407 H       
  26 H26           -0.2001    -1.2753     1.1040 H       
  27 H27            1.1665    -0.2654     0.5729 H       
  28 H28           -0.2791    -3.6338     0.4109 H       
  29 H29            1.0321    -4.2784    -0.6065 H       
  30 H30            1.2973    -4.9804     1.7630 H       
  31 H31            2.6426    -3.9382     1.2414 H       
  32 H32           -0.5209    -2.3095    -1.4692 H       
  33 H33            0.3373    -0.7502    -1.4618 H       
  34 H34            3.1842    -1.8418    -1.7293 H       
  35 H35           -0.2833    -2.3741    -3.9234 H       
  36 H36            3.0726    -3.3846     3.5422 H       
  37 H37            1.7710    -2.7082     4.5506 H       
  38 H38            1.7129    -4.4152     4.0495 H       
  39 H39           -0.4685    -4.0681     3.1169 H       
  40 H40           -0.4115    -2.3609     3.6175 H       
  41 H41           -0.7293    -2.7796     1.9169 H       
  42 H42           -0.3176    -4.2355    -3.6003 H       
  43 H43            0.0381    -6.6696    -3.4925 H       
  44 H44            2.0576    -7.5720    -2.4106 H       
  45 H45            3.7218    -6.0402    -1.4373 H       
  46 H46            3.3684    -3.6060    -1.5493 H       
  47 H47            3.6029    -3.0598    -3.8482 H       
  48 H48            2.8976    -1.7070    -4.7652 H       
  49 H49            5.3445    -1.5415    -2.9480 H       
  50 H50            5.3727    -1.5621    -4.7276 H       
  51 H51            5.5392     0.7554    -3.8616 H       
  52 H52            4.0283     0.5210    -4.7730 H       
  53 H53            4.3149     0.3862    -1.7371 H       
  54 H54            3.6096     1.7390    -2.6541 H       
  55 H55            1.8680     0.2207    -3.5543 H       
  56 H56            1.8398     0.2413    -1.7747 H       
  57 S57           13.1094     8.1935    10.6177 S.o2    
  58 O58           13.1291     6.7390    10.6097 O.co2   
  59 O59           14.4501     8.7577    10.6080 O.co2   
  60 O60           12.2818     8.7341     9.5506 O.co2   
  61 O61           12.4648     8.6164    11.9300 O.3     
  62 C62           11.2844     7.8822    12.2610 C.3     
  63 H63           11.5277     6.8234    12.3487 H       
  64 H64           10.8858     8.2432    13.2091 H       
  65 H65           10.5392     8.0200    11.4775 H       
@<TRIPOS>BOND
   1    1    2 1
   2    1    6 1
   3    1   24 1
   4    1   25 1
   5    2    3 1
   6    2   26 1
   7    2   27 1
   8    3    4 1
   9    3    7 1
  10    4    5 1
  11    4   28 1
  12    4   29 1
  13    5    6 1
  14    5   30 1
  15    5   31 1
  16    6   12 1
  17    6   13 1
  18    7    8 1
  19    7   32 1
  20    7   33 1
  21    8    9 1
  22    8   10 1
  23    8   11 1
  24    9   19 1
  25    9   23 1
  26    9   34 1
  27   10   35 1
  28   11   14 ar
  29   11   18 ar
  30   12   36 1
  31   12   37 1
  32   12   38 1
  33   13   39 1
  34   13   40 1
  35   13   41 1
  36   14   15 ar
  37   14   42 1
  38   15   16 ar
  39   15   43 1
  40   16   17 ar
  41   16   44 1
  42   17   18 ar
  43   17   45 1
  44   18   46 1
  45   19   20 1
  46   19   47 1
  47   19   48 1
  48   20   21 1
  49   20   49 1
  50   20   50 1
  51   21   22 1
  52   21   51 1
  53   21   52 1
  54   22   23 1
  55   22   53 1
  56   22   54 1
  57   23   55 1
  58   23   56 1
  59   57   58 ar
  60   57   59 ar
  61   57   60 ar
  62   57   61 1
  63   61   62 1
  64   62   63 1
  65   62   64 1
  66   62   65 1

#	End of record

