#	Name: ASD03200039
#	Creating user name:	WinNT
#	Creation time:	15. 06. 2019 20:34

#	Modifying user name:	WinNT
#	Modification time:	15. 06. 2019 20:34

#	Program:	/corina/corina34_cracker 3.40 0067  02.08.2006

@<TRIPOS>MOLECULE
ASD03200039
  53   56    0    0    0
SMALL
NO_CHARGES


@<TRIPOS>ATOM
   1 C1             0.9637    -1.0537    -0.1625 C.3     
   2 N2            -0.0268     0.0183    -0.0009 N.3     
   3 C3             0.3093     0.8848     1.1359 C.3     
   4 C4             1.6627     1.5542     0.8862 C.3     
   5 C5             2.7348     0.4756     0.7080 C.3     
   6 C6             2.3366    -0.4423    -0.4510 C.3     
   7 C7            -1.3121    -0.5050     0.1326 C.ar    
   8 C8            -2.0182    -0.3708     1.3255 C.ar    
   9 C9            -3.2886    -0.9023     1.4180 C.ar    
  10 N10           -3.8373    -1.5321     0.3965 N.ar    
  11 C11           -3.2054    -1.6829    -0.7524 C.ar    
  12 C12           -1.9295    -1.1744    -0.9307 C.ar    
  13 N13           -1.2627    -1.3371    -2.1526 N.am    
  14 C14           -1.4452    -2.4598    -2.8756 C.2     
  15 C15           -0.6780    -2.6720    -4.1048 C.2     
  16 O16           -2.2480    -3.2976    -2.5068 O.2     
  17 C17           -0.8899    -3.7439    -4.9405 C.2     
  18 S18            0.2382    -3.6119    -6.2876 S.3     
  19 C19            0.8922    -2.1275    -5.6048 C.2     
  20 N20            0.2831    -1.8374    -4.5120 N.2     
  21 C21            2.0018    -1.3119    -6.2169 C.3     
  22 N22            2.0083     2.4046     2.0331 N.3     
  23 N23           -1.8219    -4.7470    -4.7558 N.pl3   
  24 C24            3.3181    -1.7140    -5.6031 C.ar    
  25 C25            4.1125    -2.6572    -6.2276 C.ar    
  26 C26            3.7337    -1.1353    -4.4185 C.ar    
  27 C27            4.9412    -1.5041    -3.8554 C.ar    
  28 C28            5.7328    -2.4518    -4.4768 C.ar    
  29 C29            5.3200    -3.0260    -5.6646 C.ar    
  30 H30            1.0137    -1.6430     0.7531 H       
  31 H31            0.6708    -1.6967    -0.9925 H       
  32 H32           -0.4589     1.6499     1.2490 H       
  33 H33            0.3624     0.2865     2.0455 H       
  34 H34            1.6063     2.1638    -0.0157 H       
  35 H35            3.6925     0.9470     0.4869 H       
  36 H36            2.8187    -0.1095     1.6238 H       
  37 H37            3.0745    -1.2377    -0.5554 H       
  38 H38            2.2908     0.1359    -1.3739 H       
  39 H39           -1.5773     0.1423     2.1673 H       
  40 H40           -3.8415    -0.8017     2.3402 H       
  41 H41           -3.6901    -2.2053    -1.5639 H       
  42 H42           -0.6699    -0.6417    -2.4780 H       
  43 H43            2.0329    -1.4895    -7.2919 H       
  44 H44            1.8213    -0.2536    -6.0286 H       
  45 H45            2.9335     2.7935     1.9290 H       
  46 H46            1.3223     3.1330     2.1628 H       
  47 H47           -2.4014    -4.7334    -3.9781 H       
  48 H48           -1.8967    -5.4649    -5.4039 H       
  49 H49            3.7897    -3.1063    -7.1553 H       
  50 H50            3.1153    -0.3949    -3.9330 H       
  51 H51            5.2662    -1.0515    -2.9303 H       
  52 H52            6.6763    -2.7397    -4.0371 H       
  53 H53            5.9384    -3.7665    -6.1500 H       
@<TRIPOS>BOND
   1    1    2 1
   2    1    6 1
   3    1   30 1
   4    1   31 1
   5    2    3 1
   6    2    7 1
   7    3    4 1
   8    3   32 1
   9    3   33 1
  10    4    5 1
  11    4   22 1
  12    4   34 1
  13    5    6 1
  14    5   35 1
  15    5   36 1
  16    6   37 1
  17    6   38 1
  18    7    8 ar
  19    7   12 ar
  20    8    9 ar
  21    8   39 1
  22    9   10 ar
  23    9   40 1
  24   10   11 ar
  25   11   12 ar
  26   11   41 1
  27   12   13 1
  28   13   14 am
  29   13   42 1
  30   14   15 1
  31   14   16 2
  32   15   17 2
  33   15   20 1
  34   17   18 1
  35   17   23 1
  36   18   19 1
  37   19   20 2
  38   19   21 1
  39   21   24 1
  40   21   43 1
  41   21   44 1
  42   22   45 1
  43   22   46 1
  44   23   47 1
  45   23   48 1
  46   24   25 ar
  47   24   26 ar
  48   25   29 ar
  49   25   49 1
  50   26   27 ar
  51   26   50 1
  52   27   28 ar
  53   27   51 1
  54   28   29 ar
  55   28   52 1
  56   29   53 1

#	End of record

