#	Name: ASD01810575
#	Creating user name:	WinNT
#	Creation time:	15. 06. 2019 19:24

#	Modifying user name:	WinNT
#	Modification time:	15. 06. 2019 19:24

#	Program:	/corina/corina34_cracker 3.40 0067  02.08.2006

@<TRIPOS>MOLECULE
ASD01810575
  54   59    0    0    0
SMALL
NO_CHARGES


@<TRIPOS>ATOM
   1 C1            -0.0167     1.3812     0.0096 C.ar    
   2 C2             0.0021    -0.0041     0.0020 C.ar    
   3 C3             1.1984    -0.6908    -0.0126 C.ar    
   4 C4             2.4015     0.0061    -0.0198 C.ar    
   5 C5             2.3789     1.4107    -0.0126 C.ar    
   6 C6             1.1664     2.0916     0.0022 C.ar    
   7 C7             4.7971    -0.0585    -0.0411 C.2     
   8 C8             4.9001     1.3105    -0.0356 C.2     
   9 C9             3.6673     2.1304    -0.0205 C.2     
  10 C10            5.9973     2.2730    -0.0412 C.2     
  11 N11            5.4245     3.4961    -0.0301 N.am    
  12 N12            4.0323     3.3795    -0.0179 N.2     
  13 C13            6.1583     4.7640    -0.0309 C.3     
  14 C14            6.3967     5.2055    -1.4519 C.ar    
  15 C15            5.4687     6.0079    -2.0901 C.ar    
  16 C16            5.6847     6.4145    -3.3923 C.ar    
  17 C17            6.8348     6.0168    -4.0605 C.ar    
  18 C18            7.7647     5.2112    -3.4172 C.ar    
  19 C19            7.5457     4.8122    -2.1131 C.ar    
  20 N20            7.0566     6.4275    -5.3824 N.pl3   
  21 N21            6.2069     7.2364    -6.1480 N.2     
  22 C22            6.7512     7.4012    -7.3267 C.2     
  23 C23            7.9639     6.7037    -7.3505 C.2     
  24 C24            8.1314     6.1179    -6.1422 C.2     
  25 O25            7.1917     2.0230    -0.0533 O.2     
  26 N26            3.6054    -0.6770    -0.0336 N.pl3   
  27 C27            3.5559    -2.6378    -1.4626 C.ar    
  28 C28            4.7427    -2.8876    -2.1259 C.ar    
  29 C29            4.7224    -3.3481    -3.4292 C.ar    
  30 C30            3.5153    -3.5591    -4.0689 C.ar    
  31 C31            2.3285    -3.3101    -3.4052 C.ar    
  32 C32            2.3488    -2.8483    -2.1025 C.ar    
  33 C33            3.5780    -2.1417    -0.0397 C.3     
  34 H34           -0.9602     1.9068     0.0169 H       
  35 H35           -0.9288    -0.5516     0.0079 H       
  36 H36            1.2005    -1.7708    -0.0181 H       
  37 H37            1.1507     3.1715     0.0074 H       
  38 H38            5.6983    -0.6535    -0.0525 H       
  39 H39            5.5748     5.5218     0.4920 H       
  40 H40            7.1153     4.6303     0.4734 H       
  41 H41            4.5741     6.3166    -1.5698 H       
  42 H42            4.9594     7.0409    -3.8903 H       
  43 H43            8.6602     4.9000    -3.9345 H       
  44 H44            8.2687     4.1855    -1.6121 H       
  45 H45            6.3357     7.9763    -8.1409 H       
  46 H46            8.6476     6.6464    -8.1846 H       
  47 H47            8.9701     5.5078    -5.8409 H       
  48 H48            5.6858    -2.7228    -1.6261 H       
  49 H49            5.6496    -3.5426    -3.9477 H       
  50 H50            3.4994    -3.9182    -5.0874 H       
  51 H51            1.3854    -3.4743    -3.9053 H       
  52 H52            1.4216    -2.6531    -1.5842 H       
  53 H53            4.4656    -2.5239     0.4645 H       
  54 H54            2.6860    -2.4906     0.4806 H       
@<TRIPOS>BOND
   1    1    2 ar
   2    1    6 ar
   3    1   34 1
   4    2    3 ar
   5    2   35 1
   6    3    4 ar
   7    3   36 1
   8    4    5 ar
   9    4   26 1
  10    5    6 ar
  11    5    9 1
  12    6   37 1
  13    7    8 2
  14    7   26 1
  15    7   38 1
  16    8    9 1
  17    8   10 1
  18    9   12 2
  19   10   11 am
  20   10   25 2
  21   11   12 1
  22   11   13 1
  23   13   14 1
  24   13   39 1
  25   13   40 1
  26   14   15 ar
  27   14   19 ar
  28   15   16 ar
  29   15   41 1
  30   16   17 ar
  31   16   42 1
  32   17   18 ar
  33   17   20 1
  34   18   19 ar
  35   18   43 1
  36   19   44 1
  37   20   21 1
  38   20   24 1
  39   21   22 2
  40   22   23 1
  41   22   45 1
  42   23   24 2
  43   23   46 1
  44   24   47 1
  45   26   33 1
  46   27   28 ar
  47   27   32 ar
  48   27   33 1
  49   28   29 ar
  50   28   48 1
  51   29   30 ar
  52   29   49 1
  53   30   31 ar
  54   30   50 1
  55   31   32 ar
  56   31   51 1
  57   32   52 1
  58   33   53 1
  59   33   54 1

#	End of record

