#	Name: ASD01870122
#	Creating user name:	WinNT
#	Creation time:	15. 06. 2019 19:38

#	Modifying user name:	WinNT
#	Modification time:	15. 06. 2019 19:38

#	Program:	/corina/corina34_cracker 3.40 0067  02.08.2006

@<TRIPOS>MOLECULE
ASD01870122
  36   38    0    0    0
SMALL
NO_CHARGES


@<TRIPOS>ATOM
   1 C1            -0.4198     1.4898     1.6175 C.3     
   2 C2            -0.4056    -0.0171     1.6021 C.2     
   3 N3             0.6068    -0.6753     1.0035 N.am    
   4 O4            -1.3052    -0.6375     2.1283 O.2     
   5 C5             0.6798    -2.0713     1.0857 C.ar    
   6 C6             1.1704    -2.8054     0.0137 C.ar    
   7 C7             0.2670    -2.7215     2.2414 C.ar    
   8 C8             0.3395    -4.0976     2.3224 C.ar    
   9 C9             0.8255    -4.8317     1.2488 C.ar    
  10 C10            1.2427    -4.1815     0.0951 C.ar    
  11 N11            0.8995    -6.2304     1.3315 N.am    
  12 C12            1.7071    -6.8636     2.1913 C.2     
  13 C13            0.1642    -7.0416     0.5610 C.2     
  14 C14            0.4855    -8.4799     0.9039 C.3     
  15 C15            1.5423    -8.3580     2.0206 C.3     
  16 O16           -0.6330    -6.6810    -0.2781 O.2     
  17 O17            2.4525    -6.3250     2.9811 O.2     
  18 C18            0.1805    -8.9819     2.3166 C.3     
  19 C19           -0.8017    -8.1646     3.1582 C.3     
  20 C20            0.1301   -10.4960     2.5309 C.3     
  21 H21           -0.4315     1.8635     0.5936 H       
  22 H22           -1.3090     1.8394     2.1421 H       
  23 H23            0.4709     1.8563     2.1279 H       
  24 H24            1.2849    -0.1821     0.5158 H       
  25 H25            1.4949    -2.2998    -0.8837 H       
  26 H26           -0.1103    -2.1505     3.0768 H       
  27 H27            0.0185    -4.6033     3.2211 H       
  28 H28            1.6206    -4.7527    -0.7399 H       
  29 H29            0.5842    -9.1883     0.0813 H       
  30 H30            2.4415    -8.9738     2.0411 H       
  31 H31           -1.0192    -7.2243     2.6516 H       
  32 H32           -1.7251    -8.7288     3.2890 H       
  33 H33           -0.3606    -7.9585     4.1334 H       
  34 H34            0.7607   -10.7642     3.3785 H       
  35 H35           -0.8971   -10.8006     2.7316 H       
  36 H36            0.4907   -11.0019     1.6353 H       
@<TRIPOS>BOND
   1    1    2 1
   2    1   21 1
   3    1   22 1
   4    1   23 1
   5    2    3 am
   6    2    4 2
   7    3    5 1
   8    3   24 1
   9    5    6 ar
  10    5    7 ar
  11    6   10 ar
  12    6   25 1
  13    7    8 ar
  14    7   26 1
  15    8    9 ar
  16    8   27 1
  17    9   10 ar
  18    9   11 1
  19   10   28 1
  20   11   12 am
  21   11   13 am
  22   12   17 2
  23   12   15 1
  24   13   16 2
  25   13   14 1
  26   14   15 1
  27   14   18 1
  28   14   29 1
  29   15   18 1
  30   15   30 1
  31   18   19 1
  32   18   20 1
  33   19   31 1
  34   19   32 1
  35   19   33 1
  36   20   34 1
  37   20   35 1
  38   20   36 1

#	End of record

