#	Name: ASD03540498
#	Creating user name:	WinNT
#	Creation time:	15. 06. 2019 20:43

#	Modifying user name:	WinNT
#	Modification time:	15. 06. 2019 20:43

#	Program:	/corina/corina34_cracker 3.40 0067  02.08.2006

@<TRIPOS>MOLECULE
ASD03540498
  53   56    0    0    0
SMALL
NO_CHARGES


@<TRIPOS>ATOM
   1 C1             2.7512    -8.6910    -2.5518 C.2     
   2 C2             2.0603    -7.5584    -1.9021 C.ar    
   3 C3             0.6744    -7.5857    -1.7339 C.ar    
   4 C4             0.0356    -6.5249    -1.1259 C.ar    
   5 C5             0.7650    -5.4354    -0.6838 C.ar    
   6 C6             2.1385    -5.4016    -0.8477 C.ar    
   7 C7             2.7907    -6.4583    -1.4484 C.ar    
   8 O8             2.1137    -9.6489    -2.9410 O.2     
   9 O9             4.0877    -8.6590    -2.7176 O.3     
  10 C10            0.0601    -4.2800    -0.0210 C.3     
  11 N11           -3.3738    -4.7488     1.2281 N.am    
  12 C12           -2.2986    -4.3338     0.5372 C.2     
  13 N13           -1.0579    -4.7846     0.7800 N.am    
  14 C14           -0.8212    -5.6954     1.7492 C.2     
  15 C15           -1.9652    -6.1862     2.5395 C.ar    
  16 C16           -1.8037    -7.1227     3.5526 C.ar    
  17 C17           -2.9208    -7.5523     4.2680 C.ar    
  18 C18           -4.1885    -7.0415     3.9632 C.ar    
  19 C19           -4.3470    -6.1204     2.9666 C.ar    
  20 C20           -3.2455    -5.6804     2.2435 C.ar    
  21 C21           -2.7669    -8.5472     5.3480 C.2     
  22 N22           -3.8461    -8.9629     6.0401 N.am    
  23 O23           -1.6666    -8.9914     5.6131 O.2     
  24 C24           -3.6934    -9.9501     7.1117 C.3     
  25 C25           -7.0693   -11.4971     7.8073 C.ar    
  26 C26           -5.8401   -11.2586     7.2224 C.ar    
  27 C27           -5.0403   -10.2420     7.7215 C.ar    
  28 C28           -5.5088    -9.5005     8.7953 C.ar    
  29 C29           -6.7488    -9.7973     9.3287 C.ar    
  30 N30           -7.4829   -10.7716     8.8278 N.ar    
  31 O31            0.3051    -6.1000     1.9638 O.2     
  32 O32           -2.4565    -3.5145    -0.3470 O.2     
  33 C33            1.0422    -3.5358     0.8859 C.3     
  34 H34            0.1039    -8.4352    -2.0792 H       
  35 H35           -1.0362    -6.5447    -0.9951 H       
  36 H36            2.7016    -4.5478    -0.5009 H       
  37 H37            3.8634    -6.4328    -1.5714 H       
  38 H38            4.4951    -9.4232    -3.1480 H       
  39 H39           -0.3176    -3.5990    -0.7837 H       
  40 H40           -4.2489    -4.3884     1.0155 H       
  41 H41           -0.8239    -7.5141     3.7834 H       
  42 H42           -5.0494    -7.3793     4.5210 H       
  43 H43           -5.3298    -5.7339     2.7407 H       
  44 H44           -4.7239    -8.6085     5.8286 H       
  45 H45           -3.2732   -10.8688     6.7022 H       
  46 H46           -3.0258    -9.5549     7.8773 H       
  47 H47           -7.7002   -12.2843     7.4216 H       
  48 H48           -5.5068   -11.8565     6.3870 H       
  49 H49           -4.9123    -8.7014     9.2099 H       
  50 H50           -7.1210    -9.2245    10.1652 H       
  51 H51            1.4199    -4.2168     1.6486 H       
  52 H52            1.8741    -3.1604     0.2900 H       
  53 H53            0.5324    -2.7001     1.3653 H       
@<TRIPOS>BOND
   1    1    2 1
   2    1    8 2
   3    1    9 1
   4    2    3 ar
   5    2    7 ar
   6    3    4 ar
   7    3   34 1
   8    4    5 ar
   9    4   35 1
  10    5    6 ar
  11    5   10 1
  12    6    7 ar
  13    6   36 1
  14    7   37 1
  15    9   38 1
  16   10   13 1
  17   10   33 1
  18   10   39 1
  19   11   12 am
  20   11   20 1
  21   11   40 1
  22   12   13 am
  23   12   32 2
  24   13   14 am
  25   14   15 1
  26   14   31 2
  27   15   16 ar
  28   15   20 ar
  29   16   17 ar
  30   16   41 1
  31   17   18 ar
  32   17   21 1
  33   18   19 ar
  34   18   42 1
  35   19   20 ar
  36   19   43 1
  37   21   22 am
  38   21   23 2
  39   22   24 1
  40   22   44 1
  41   24   27 1
  42   24   45 1
  43   24   46 1
  44   25   26 ar
  45   25   30 ar
  46   25   47 1
  47   26   27 ar
  48   26   48 1
  49   27   28 ar
  50   28   29 ar
  51   28   49 1
  52   29   30 ar
  53   29   50 1
  54   33   51 1
  55   33   52 1
  56   33   53 1

#	End of record

