#	Name: ASD01901619
#	Creating user name:	WinNT
#	Creation time:	15. 06. 2019 19:54

#	Modifying user name:	WinNT
#	Modification time:	15. 06. 2019 19:54

#	Program:	/corina/corina34_cracker 3.40 0067  02.08.2006

@<TRIPOS>MOLECULE
ASD01901619
  45   48    0    0    0
SMALL
NO_CHARGES


@<TRIPOS>ATOM
   1 C1             1.2947     1.4610    -1.4391 C.3     
   2 O2             0.9972     0.0644    -1.3856 O.3     
   3 C3             0.2298    -0.3232    -0.2442 C.3     
   4 C4            -0.0280    -1.8306    -0.2908 C.3     
   5 N5             1.2469    -2.5495    -0.1643 N.3     
   6 C6             1.8415    -2.3374     1.1621 C.3     
   7 C7             1.0832    -3.8993    -0.4246 C.ar    
   8 N8             0.3346    -4.6410     0.3699 N.ar    
   9 C9             0.1430    -5.9385     0.1677 C.ar    
  10 C10            0.7098    -6.5955    -0.8794 C.ar    
  11 C11            1.5245    -5.8733    -1.7752 C.ar    
  12 C12            2.1406    -6.4816    -2.8747 C.ar    
  13 C13            2.9272    -5.7201    -3.7160 C.ar    
  14 N14            3.5446    -6.3187    -4.8139 N.pl3   
  15 C15            4.7116    -5.7642    -5.3479 C.2     
  16 N16            5.3854    -4.7605    -4.8527 N.2     
  17 N17            6.4958    -4.4844    -5.6564 N.pl3   
  18 H18            7.1464    -3.7837    -5.4933 H       
  19 C19            6.5204    -5.3584    -6.7087 C.ar    
  20 N20            7.3388    -5.5278    -7.7405 N.ar    
  21 C21            7.0987    -6.4813    -8.6186 C.ar    
  22 C22            5.9950    -7.3134    -8.4753 C.ar    
  23 N23            5.1717    -7.1609    -7.4582 N.ar    
  24 C24            5.4035    -6.2074    -6.5600 C.ar    
  25 C25            3.1105    -4.3531    -3.4780 C.ar    
  26 C26            2.5207    -3.7424    -2.4143 C.ar    
  27 C27            1.7119    -4.4864    -1.5445 C.ar    
  28 H28            1.8666     1.7447    -0.5556 H       
  29 H29            1.8792     1.6740    -2.3341 H       
  30 H30            0.3653     2.0297    -1.4682 H       
  31 H31            0.7796    -0.0765     0.6641 H       
  32 H32           -0.7218     0.2085    -0.2485 H       
  33 H33           -0.6869    -2.1121     0.5306 H       
  34 H34           -0.4986    -2.0896    -1.2392 H       
  35 H35            1.1218    -2.6165     1.9317 H       
  36 H36            2.7363    -2.9518     1.2616 H       
  37 H37            2.1075    -1.2867     1.2773 H       
  38 H38           -0.4816    -6.4892     0.8555 H       
  39 H39            0.5392    -7.6524    -1.0220 H       
  40 H40            2.0025    -7.5361    -3.0630 H       
  41 H41            3.1643    -7.1197    -5.2071 H       
  42 H42            7.7657    -6.6168    -9.4572 H       
  43 H43            5.8107    -8.0902    -9.2027 H       
  44 H44            3.7293    -3.7745    -4.1479 H       
  45 H45            2.6719    -2.6867    -2.2435 H       
@<TRIPOS>BOND
   1    1    2 1
   2    1   28 1
   3    1   29 1
   4    1   30 1
   5    2    3 1
   6    3    4 1
   7    3   31 1
   8    3   32 1
   9    4    5 1
  10    4   33 1
  11    4   34 1
  12    5    6 1
  13    5    7 1
  14    6   35 1
  15    6   36 1
  16    6   37 1
  17    7   27 ar
  18    7    8 ar
  19    8    9 ar
  20    9   10 ar
  21    9   38 1
  22   10   11 ar
  23   10   39 1
  24   11   27 ar
  25   11   12 ar
  26   12   13 ar
  27   12   40 1
  28   13   14 1
  29   13   25 ar
  30   14   15 1
  31   14   41 1
  32   15   24 1
  33   15   16 2
  34   16   17 1
  35   17   18 1
  36   17   19 1
  37   19   24 ar
  38   19   20 ar
  39   20   21 ar
  40   21   22 ar
  41   21   42 1
  42   22   23 ar
  43   22   43 1
  44   23   24 ar
  45   25   26 ar
  46   25   44 1
  47   26   27 ar
  48   26   45 1

#	End of record

