#	Name: ASD03320188
#	Creating user name:	WinNT
#	Creation time:	15. 06. 2019 20:36

#	Modifying user name:	WinNT
#	Modification time:	15. 06. 2019 20:36

#	Program:	/corina/corina34_cracker 3.40 0067  02.08.2006

@<TRIPOS>MOLECULE
ASD03320188
  49   52    0    0    0
SMALL
NO_CHARGES


@<TRIPOS>ATOM
   1 C1             0.0979     1.7651     0.0536 C.ar    
   2 C2             0.2540     0.3764     0.0770 C.ar    
   3 N3            -0.7902    -0.4216     0.1084 N.ar    
   4 C4            -2.0327     0.0486     0.1198 C.ar    
   5 C5            -2.2756     1.4347     0.0984 C.ar    
   6 C6            -1.1921     2.3084     0.0703 C.ar    
   7 C7             1.2802     2.6491     0.0178 C.2     
   8 O8             1.1364     3.8563    -0.0024 O.2     
   9 N9             2.5188     2.1178     0.0075 N.am    
  10 C10            3.6371     2.9511    -0.1178 C.ar    
  11 C11           -3.6632     1.9562     0.1112 C.ar    
  12 C12            3.6340     4.2105     0.4672 C.ar    
  13 C13            4.7374     5.0316     0.3436 C.ar    
  14 C14            5.8487     4.5986    -0.3649 C.ar    
  15 C15            5.8524     3.3408    -0.9500 C.ar    
  16 C16            4.7520     2.5164    -0.8224 C.ar    
  17 O17            6.9348     5.4076    -0.4862 O.3     
  18 C18            8.0438     4.8977    -1.2292 C.3     
  19 F19            7.6379     4.6147    -2.5378 F       
  20 F20            9.0666     5.8519    -1.2544 F       
  21 F21            8.5128     3.7273    -0.6230 F       
  22 C22           -4.0821     2.8593     1.0924 C.ar    
  23 N23           -5.3282     3.2996     1.0664 N.ar    
  24 C24           -6.1696     2.8990     0.1338 C.ar    
  25 N25           -5.8158     2.0485    -0.8093 N.ar    
  26 C26           -4.5874     1.5631    -0.8610 C.ar    
  27 C27           -3.1682    -0.8909     0.1549 C.2     
  28 C28           -3.3861    -1.8107    -1.0152 C.3     
  29 C29           -4.3248    -2.9487    -0.6052 C.3     
  30 O30           -5.4580    -2.3830     0.0646 O.3     
  31 C31           -5.1339    -1.8231     1.3387 C.3     
  32 C32           -3.9552    -0.8996     1.2137 C.2     
  33 H33            1.2473    -0.0475     0.0687 H       
  34 H34           -1.3431     3.3777     0.0537 H       
  35 H35            2.6356     1.1581     0.0870 H       
  36 H36            2.7688     4.5479     1.0185 H       
  37 H37            4.7350     6.0112     0.7982 H       
  38 H38            6.7178     3.0045    -1.5017 H       
  39 H39            4.7551     1.5370    -1.2777 H       
  40 H40           -3.3987     3.1918     1.8597 H       
  41 H41           -7.1804     3.2793     0.1429 H       
  42 H42           -4.3048     0.8669    -1.6368 H       
  43 H43           -3.8310    -1.2517    -1.8384 H       
  44 H44           -2.4298    -2.2257    -1.3336 H       
  45 H45           -4.6556    -3.4884    -1.4926 H       
  46 H46           -3.8034    -3.6293     0.0679 H       
  47 H47           -5.9920    -1.2688     1.7188 H       
  48 H48           -4.8876    -2.6256     2.0341 H       
  49 H49           -3.7486    -0.2104     2.0191 H       
@<TRIPOS>BOND
   1    1    2 ar
   2    1    7 1
   3    1    6 ar
   4    2    3 ar
   5    2   33 1
   6    3    4 ar
   7    4    5 ar
   8    4   27 1
   9    5    6 ar
  10    5   11 1
  11    6   34 1
  12    7    8 2
  13    7    9 am
  14    9   10 1
  15    9   35 1
  16   10   12 ar
  17   10   16 ar
  18   11   22 ar
  19   11   26 ar
  20   12   13 ar
  21   12   36 1
  22   13   14 ar
  23   13   37 1
  24   14   15 ar
  25   14   17 1
  26   15   16 ar
  27   15   38 1
  28   16   39 1
  29   17   18 1
  30   18   19 1
  31   18   20 1
  32   18   21 1
  33   22   23 ar
  34   22   40 1
  35   23   24 ar
  36   24   25 ar
  37   24   41 1
  38   25   26 ar
  39   26   42 1
  40   27   28 1
  41   27   32 2
  42   28   29 1
  43   28   43 1
  44   28   44 1
  45   29   30 1
  46   29   45 1
  47   29   46 1
  48   30   31 1
  49   31   32 1
  50   31   47 1
  51   31   48 1
  52   32   49 1

#	End of record

