#	Name: ASD09116102
#	Creating user name:	WinNT
#	Creation time:	15. 06. 2019 21:20

#	Modifying user name:	WinNT
#	Modification time:	15. 06. 2019 21:20

#	Program:	/corina/corina34_cracker 3.40 0067  02.08.2006

@<TRIPOS>MOLECULE
ASD09116102
  76   81    0    0    0
SMALL
NO_CHARGES


@<TRIPOS>ATOM
   1 C1            -0.0012     1.3933     0.0366 C.ar    
   2 N2             0.0662    -0.0001     0.1059 N.pl3   
   3 N3             0.9872    -0.8314    -0.5516 N.2     
   4 C4             0.6984    -2.0652    -0.2137 C.2     
   5 N5            -0.3504    -2.0556     0.6175 N.2     
   6 C6            -0.7399    -0.8160     0.8249 C.2     
   7 N7            -1.7923    -0.4180     1.6272 N.pl3   
   8 N8             1.3752    -3.2041    -0.6504 N.pl3   
   9 C9             1.1324     2.1265    -0.2785 C.ar    
  10 N10           -1.1415     2.0140     0.2647 N.ar    
  11 C11           -1.2767     3.3299     0.2168 C.ar    
  12 C12           -0.2005     4.1361    -0.0724 C.ar    
  13 C13            1.0380     3.5154    -0.3380 C.ar    
  14 C14            0.9011    -4.4753    -0.3058 C.ar    
  15 C15           -0.4581    -4.6795    -0.1070 C.ar    
  16 C16           -0.9249    -5.9339     0.2331 C.ar    
  17 C17           -0.0366    -6.9896     0.3765 C.ar    
  18 C18            1.3211    -6.7865     0.1781 C.ar    
  19 C19            1.7890    -5.5342    -0.1680 C.ar    
  20 C20           -2.6483     3.8868     0.4908 C.3     
  21 C21           -3.3694     4.2642    -0.8062 C.3     
  22 C22           -2.5609     5.2286    -1.6774 C.3     
  23 C23           -2.5653     6.3924    -0.6995 C.3     
  24 C24           -1.4240     6.4752     0.2974 C.3     
  25 C25           -0.2291     5.6363    -0.1302 C.3     
  26 C26            2.2380     4.3158    -0.6859 C.ar    
  27 C27            3.4407     4.1002    -0.0160 C.ar    
  28 C28            2.1679     5.2818    -1.6877 C.ar    
  29 C29            3.2871     6.0235    -2.0071 C.ar    
  30 C30            4.4769     5.8092    -1.3349 C.ar    
  31 C31            4.5537     4.8476    -0.3436 C.ar    
  32 O32           -0.4971    -8.2244     0.7122 O.3     
  33 C33           -0.2277   -10.5713     1.2221 C.3     
  34 C34            0.4733    -9.2652     0.8430 C.3     
  35 N35           -1.1047   -10.9936     0.1218 N.3     
  36 C36           -1.6126   -12.3596     0.3455 C.3     
  37 C37           -3.1537   -12.2844     0.3188 C.3     
  38 C38           -3.4264   -10.9841    -0.4822 C.3     
  39 C39           -2.2582   -10.0793    -0.0170 C.3     
  40 H40           -2.3198    -1.0810     2.0995 H       
  41 H41           -2.0036     0.5244     1.7180 H       
  42 H42            2.1744    -3.1151    -1.1929 H       
  43 H43            2.0717     1.6310    -0.4748 H       
  44 H44           -1.1498    -3.8575    -0.2179 H       
  45 H45           -1.9819    -6.0930     0.3877 H       
  46 H46            2.0120    -7.6090     0.2899 H       
  47 H47            2.8462    -5.3763    -0.3228 H       
  48 H48           -3.2407     3.1058     0.9894 H       
  49 H49           -2.5972     4.7357     1.1578 H       
  50 H50           -3.5555     3.3536    -1.3765 H       
  51 H51           -4.3234     4.7235    -0.5584 H       
  52 H52           -1.5627     4.8535    -1.8892 H       
  53 H53           -3.0925     5.4712    -2.6020 H       
  54 H54           -2.5718     7.3206    -1.2847 H       
  55 H55           -3.5072     6.3704    -0.1422 H       
  56 H56           -1.0979     7.5250     0.3645 H       
  57 H57           -1.7539     6.1814     1.2906 H       
  58 H58            0.6119     5.9947     0.4787 H       
  59 H59            0.0040     5.9247    -1.1602 H       
  60 H60            3.5016     3.3499     0.7584 H       
  61 H61            1.2395     5.4497    -2.2134 H       
  62 H62            3.2340     6.7722    -2.7836 H       
  63 H63            5.3503     6.3918    -1.5881 H       
  64 H64            5.4852     4.6845     0.1781 H       
  65 H65            0.5187   -11.3434     1.4086 H       
  66 H66           -0.8228   -10.4163     2.1221 H       
  67 H67            0.9964    -9.3954    -0.1044 H       
  68 H68            1.1896    -8.9985     1.6200 H       
  69 H69           -1.2598   -13.0206    -0.4461 H       
  70 H70           -1.2760   -12.7262     1.3152 H       
  71 H71           -3.5729   -13.1491    -0.1958 H       
  72 H72           -3.5533   -12.2052     1.3298 H       
  73 H73           -3.3742   -11.1683    -1.5553 H       
  74 H74           -4.3885   -10.5512    -0.2083 H       
  75 H75           -2.4943    -9.6178     0.9418 H       
  76 H76           -2.0488    -9.3152    -0.7656 H       
@<TRIPOS>BOND
   1    1    2 1
   2    1    9 ar
   3    1   10 ar
   4    2    3 1
   5    2    6 1
   6    3    4 2
   7    4    5 1
   8    4    8 1
   9    5    6 2
  10    6    7 1
  11    7   40 1
  12    7   41 1
  13    8   14 1
  14    8   42 1
  15    9   13 ar
  16    9   43 1
  17   10   11 ar
  18   11   12 ar
  19   11   20 1
  20   12   13 ar
  21   12   25 1
  22   13   26 1
  23   14   15 ar
  24   14   19 ar
  25   15   16 ar
  26   15   44 1
  27   16   17 ar
  28   16   45 1
  29   17   18 ar
  30   17   32 1
  31   18   19 ar
  32   18   46 1
  33   19   47 1
  34   20   21 1
  35   20   48 1
  36   20   49 1
  37   21   22 1
  38   21   50 1
  39   21   51 1
  40   22   23 1
  41   22   52 1
  42   22   53 1
  43   23   24 1
  44   23   54 1
  45   23   55 1
  46   24   25 1
  47   24   56 1
  48   24   57 1
  49   25   58 1
  50   25   59 1
  51   26   27 ar
  52   26   28 ar
  53   27   31 ar
  54   27   60 1
  55   28   29 ar
  56   28   61 1
  57   29   30 ar
  58   29   62 1
  59   30   31 ar
  60   30   63 1
  61   31   64 1
  62   32   34 1
  63   33   34 1
  64   33   35 1
  65   33   65 1
  66   33   66 1
  67   34   67 1
  68   34   68 1
  69   35   36 1
  70   35   39 1
  71   36   37 1
  72   36   69 1
  73   36   70 1
  74   37   38 1
  75   37   71 1
  76   37   72 1
  77   38   39 1
  78   38   73 1
  79   38   74 1
  80   39   75 1
  81   39   76 1

#	End of record

