#	Name: ASD01911694
#	Creating user name:	WinNT
#	Creation time:	15. 06. 2019 19:58

#	Modifying user name:	WinNT
#	Modification time:	15. 06. 2019 19:58

#	Program:	/corina/corina34_cracker 3.40 0067  02.08.2006

@<TRIPOS>MOLECULE
ASD01911694
  40   42    0    0    0
SMALL
NO_CHARGES


@<TRIPOS>ATOM
   1 N1            -0.1941     1.1541    -0.3260 N.am    
   2 C2            -0.2235     0.0948     0.5067 C.2     
   3 C3            -1.5068    -0.4932     0.8991 C.2     
   4 C4            -1.7726    -1.8295     1.0316 C.2     
   5 S5            -2.9773     0.3960     1.2908 S.3     
   6 C6            -3.8148    -1.1241     1.5901 C.2     
   7 N7            -2.9895    -2.1222     1.3933 N.2     
   8 C8            -5.1838    -1.2494     1.9911 C.1     
   9 C9            -6.3062    -1.3522     2.3198 C.1     
  10 C10           -7.6752    -1.4775     2.7207 C.ar    
  11 C11           -8.2332    -2.7423     2.9296 C.ar    
  12 C12           -9.5521    -2.8548     3.3160 C.ar    
  13 C13          -10.3232    -1.7198     3.4967 C.ar    
  14 C14           -9.7780    -0.4643     3.2919 C.ar    
  15 C15           -8.4590    -0.3353     2.9109 C.ar    
  16 O16            0.8161    -0.3733     0.9328 O.2     
  17 C17            1.0713     1.8405    -0.6198 C.3     
  18 C18            0.9003     3.3351    -0.3303 C.3     
  19 C19           -0.3009     3.8684    -1.1145 C.3     
  20 C20           -1.5698     3.1409    -0.6643 C.3     
  21 C21           -1.4260     1.6407    -0.9620 C.3     
  22 C22            2.1815     1.2704     0.2651 C.3     
  23 H23           -1.0259    -2.5880     0.8487 H       
  24 H24           -7.6330    -3.6290     2.7883 H       
  25 H25           -9.9846    -3.8311     3.4778 H       
  26 H26          -11.3558    -1.8143     3.7988 H       
  27 H27          -10.3861     0.4168     3.4346 H       
  28 H28           -8.0349     0.6450     2.7514 H       
  29 H29            1.3287     1.6988    -1.6694 H       
  30 H30            0.7325     3.4821     0.7367 H       
  31 H31            1.8000     3.8699    -0.6346 H       
  32 H32           -0.4099     4.9370    -0.9294 H       
  33 H33           -0.1435     3.6987    -2.1796 H       
  34 H34           -1.7143     3.2898     0.4058 H       
  35 H35           -2.4283     3.5375    -1.2065 H       
  36 H36           -1.3731     1.4854    -2.0396 H       
  37 H37           -2.2827     1.1036    -0.5550 H       
  38 H38            2.3916     0.2429    -0.0321 H       
  39 H39            3.0826     1.8730     0.1511 H       
  40 H40            1.8615     1.2890     1.3069 H       
@<TRIPOS>BOND
   1    1    2 am
   2    1   17 1
   3    1   21 1
   4    2    3 1
   5    2   16 2
   6    3    4 2
   7    3    5 1
   8    4    7 1
   9    4   23 1
  10    5    6 1
  11    6    7 2
  12    6    8 1
  13    8    9 3
  14    9   10 1
  15   10   11 ar
  16   10   15 ar
  17   11   12 ar
  18   11   24 1
  19   12   13 ar
  20   12   25 1
  21   13   14 ar
  22   13   26 1
  23   14   15 ar
  24   14   27 1
  25   15   28 1
  26   17   18 1
  27   17   22 1
  28   17   29 1
  29   18   19 1
  30   18   30 1
  31   18   31 1
  32   19   20 1
  33   19   32 1
  34   19   33 1
  35   20   21 1
  36   20   34 1
  37   20   35 1
  38   21   36 1
  39   21   37 1
  40   22   38 1
  41   22   39 1
  42   22   40 1

#	End of record

