#	Name: ASD05740185
#	Creating user name:	WinNT
#	Creation time:	15. 06. 2019 21:03

#	Modifying user name:	WinNT
#	Modification time:	15. 06. 2019 21:03

#	Program:	/corina/corina34_cracker 3.40 0067  02.08.2006

@<TRIPOS>MOLECULE
ASD05740185
  59   63    0    0    0
SMALL
NO_CHARGES


@<TRIPOS>ATOM
   1 C1             0.9136    -0.7416    -0.4330 C.3     
   2 N2             0.0324    -0.0894     0.5457 N.3     
   3 C3            -1.2745    -0.5801     0.4489 C.ar    
   4 C4            -2.2644    -0.0900     1.2908 C.ar    
   5 C5            -3.5539    -0.5742     1.1953 C.ar    
   6 C6            -3.8609    -1.5516     0.2578 C.ar    
   7 C7            -2.8710    -2.0420    -0.5837 C.ar    
   8 C8            -1.5830    -1.5531    -0.4928 C.ar    
   9 N9            -5.1690    -2.0431     0.1612 N.pl3   
  10 C10           -6.2413    -1.2009     0.3818 C.ar    
  11 N11           -6.0088     0.0933     0.5717 N.ar    
  12 N12           -7.4630    -1.7135     0.3907 N.ar    
  13 C13           -8.5161    -0.9340     0.5995 C.ar    
  14 C14           -8.3069     0.4467     0.8109 C.ar    
  15 C15           -6.9982     0.9418     0.7867 C.ar    
  16 N16           -9.7923    -1.4348     0.6141 N.am    
  17 C17          -10.8486    -0.6299     0.8269 C.2     
  18 C18          -10.6963     0.7546     1.0427 C.2     
  19 C19           -9.4580     1.3142     1.0417 C.2     
  20 C20          -10.0085    -2.8669     0.3943 C.3     
  21 O21          -11.9684    -1.1110     0.8328 O.2     
  22 C22            0.5554    -0.2494     1.9097 C.3     
  23 C23            1.9527     0.3695     1.9933 C.3     
  24 N24            2.8339    -0.2827     1.0147 N.3     
  25 C25            2.3109    -0.1226    -0.3493 C.3     
  26 C26           -9.9051    -3.5981     1.7080 C.ar    
  27 C27           -9.8808    -5.6614     2.9624 C.ar    
  28 C28           -9.7144    -4.9425     4.1277 C.ar    
  29 C29           -9.6491    -3.5608     4.0887 C.ar    
  30 C30           -9.7442    -2.8912     2.8819 C.ar    
  31 C31            4.2059     0.2325     1.1163 C.3     
  32 C32           -9.9776    -4.9919     1.7406 C.ar    
  33 C33          -10.1508    -5.7317     0.5268 C.1     
  34 N34          -10.2883    -6.3186    -0.4361 N.1     
  35 H35            0.9744    -1.8076    -0.2140 H       
  36 H36            0.5120    -0.5984    -1.4361 H       
  37 H37           -2.0254     0.6696     2.0204 H       
  38 H38           -4.3236    -0.1931     1.8499 H       
  39 H39           -3.1097    -2.8026    -1.3123 H       
  40 H40           -0.8132    -1.9345    -1.1473 H       
  41 H41           -5.3218    -2.9750    -0.0605 H       
  42 H42           -6.8014     1.9918     0.9448 H       
  43 H43          -11.5662     1.3724     1.2098 H       
  44 H44           -9.3289     2.3737     1.2063 H       
  45 H45          -10.9995    -3.0236    -0.0317 H       
  46 H46           -9.2532    -3.2471    -0.2935 H       
  47 H47           -0.1075     0.2525     2.6145 H       
  48 H48            0.6121    -1.3099     2.1553 H       
  49 H49            1.8919     1.4355     1.7743 H       
  50 H50            2.3544     0.2264     2.9965 H       
  51 H51            2.9738    -0.6246    -1.0542 H       
  52 H52            2.2542     0.9378    -0.5950 H       
  53 H53           -9.9316    -6.7397     2.9942 H       
  54 H54           -9.6394    -5.4590     5.0732 H       
  55 H55           -9.5188    -3.0028     5.0042 H       
  56 H56           -9.6921    -1.8127     2.8585 H       
  57 H57            4.5927     0.0408     2.1171 H       
  58 H58            4.8368    -0.2670     0.3810 H       
  59 H59            4.2060     1.3057     0.9260 H       
@<TRIPOS>BOND
   1    1    2 1
   2    1   25 1
   3    1   35 1
   4    1   36 1
   5    2    3 1
   6    2   22 1
   7    3    4 ar
   8    3    8 ar
   9    4    5 ar
  10    4   37 1
  11    5    6 ar
  12    5   38 1
  13    6    7 ar
  14    6    9 1
  15    7    8 ar
  16    7   39 1
  17    8   40 1
  18    9   10 1
  19    9   41 1
  20   10   11 ar
  21   10   12 ar
  22   11   15 ar
  23   12   13 ar
  24   13   14 ar
  25   13   16 1
  26   14   15 ar
  27   14   19 1
  28   15   42 1
  29   16   17 am
  30   16   20 1
  31   17   18 1
  32   17   21 2
  33   18   19 2
  34   18   43 1
  35   19   44 1
  36   20   26 1
  37   20   45 1
  38   20   46 1
  39   22   23 1
  40   22   47 1
  41   22   48 1
  42   23   24 1
  43   23   49 1
  44   23   50 1
  45   24   25 1
  46   24   31 1
  47   25   51 1
  48   25   52 1
  49   26   30 ar
  50   26   32 ar
  51   27   28 ar
  52   27   32 ar
  53   27   53 1
  54   28   29 ar
  55   28   54 1
  56   29   30 ar
  57   29   55 1
  58   30   56 1
  59   31   57 1
  60   31   58 1
  61   31   59 1
  62   32   33 1
  63   33   34 3

#	End of record

