#	Name: ASD01350030
#	Creating user name:	WinNT
#	Creation time:	15. 06. 2019 19:16

#	Modifying user name:	WinNT
#	Modification time:	15. 06. 2019 19:16

#	Program:	/corina/corina34_cracker 3.40 0067  02.08.2006

@<TRIPOS>MOLECULE
ASD01350030
  34   36    0    0    0
SMALL
NO_CHARGES


@<TRIPOS>ATOM
   1 C1            -0.0185     1.5095     0.0103 C.3     
   2 C2             0.0021    -0.0041     0.0020 C.ar    
   3 C3             1.2473    -0.4523    -0.3967 C.ar    
   4 C4             2.1487     0.7293    -0.6836 C.3     
   5 C5             1.4655     1.9336    -0.0016 C.3     
   6 C6            -0.9902    -0.9169     0.3187 C.ar    
   7 C7            -0.7393    -2.2725     0.2373 C.ar    
   8 C8             0.5062    -2.7208    -0.1615 C.ar    
   9 C9             1.4969    -1.8122    -0.4781 C.ar    
  10 N10            3.4813     0.5056    -0.1073 N.3     
  11 C11            1.6604     3.2079    -0.8256 C.3     
  12 C12            1.0899     4.3836    -0.0750 C.ar    
  13 C13            1.8572     5.0375     0.8723 C.ar    
  14 C14            1.3333     6.1169     1.5613 C.ar    
  15 C15            0.0427     6.5415     1.3024 C.ar    
  16 C16           -0.7238     5.8866     0.3546 C.ar    
  17 C17           -0.1980     4.8120    -0.3374 C.ar    
  18 Cl18          -0.6156     7.8954     2.1669 Cl      
  19 Cl19           3.4768     4.5035     1.1970 Cl      
  20 H20           -0.5265     1.8857    -0.8776 H       
  21 H21           -0.5094     1.8761     0.9118 H       
  22 H22            2.2237     0.8957    -1.7582 H       
  23 H23            1.8386     2.0667     1.0139 H       
  24 H24           -1.9633    -0.5674     0.6307 H       
  25 H25           -1.5152    -2.9816     0.4853 H       
  26 H26            0.7043    -3.7806    -0.2254 H       
  27 H27            2.4696    -2.1631    -0.7896 H       
  28 H28            3.9193    -0.3074    -0.5139 H       
  29 H29            4.0638     1.3223    -0.2155 H       
  30 H30            2.7243     3.3692    -0.9992 H       
  31 H31            1.1479     3.1041    -1.7820 H       
  32 H32            1.9318     6.6274     2.3013 H       
  33 H33           -1.7317     6.2179     0.1526 H       
  34 H34           -0.7965     4.3015    -1.0774 H       
@<TRIPOS>BOND
   1    1    2 1
   2    1    5 1
   3    1   20 1
   4    1   21 1
   5    2    3 ar
   6    2    6 ar
   7    3    4 1
   8    3    9 ar
   9    4    5 1
  10    4   10 1
  11    4   22 1
  12    5   11 1
  13    5   23 1
  14    6    7 ar
  15    6   24 1
  16    7    8 ar
  17    7   25 1
  18    8    9 ar
  19    8   26 1
  20    9   27 1
  21   10   28 1
  22   10   29 1
  23   11   12 1
  24   11   30 1
  25   11   31 1
  26   12   13 ar
  27   12   17 ar
  28   13   14 ar
  29   13   19 1
  30   14   15 ar
  31   14   32 1
  32   15   16 ar
  33   15   18 1
  34   16   17 ar
  35   16   33 1
  36   17   34 1

#	End of record

