#	Name: ASD08830208
#	Creating user name:	WinNT
#	Creation time:	15. 06. 2019 21:20

#	Modifying user name:	WinNT
#	Modification time:	15. 06. 2019 21:20

#	Program:	/corina/corina34_cracker 3.40 0067  02.08.2006

@<TRIPOS>MOLECULE
ASD08830208
  47   49    0    0    0
SMALL
NO_CHARGES


@<TRIPOS>ATOM
   1 C1            -0.0178     1.4648     0.0101 C.ar    
   2 C2             0.0021    -0.0041     0.0020 C.2     
   3 C3            -1.2926    -0.7753     0.0102 C.3     
   4 C4            -0.9927    -2.2755    -0.0007 C.3     
   5 N5            -2.2547    -3.0273     0.0073 N.3     
   6 O6             1.0606    -0.5962    -0.0113 O.2     
   7 C7            -1.2394     2.1495     0.0313 C.ar    
   8 C8            -2.0181    -4.4568    -0.2410 C.3     
   9 C9            -3.3490    -5.2097    -0.1649 C.3     
  10 O10           -4.2665    -4.6418    -1.1035 O.3     
  11 C11           -4.5205    -3.2506    -0.8906 C.3     
  12 C12           -3.2015    -2.4779    -0.9741 C.3     
  13 C13            1.1848     2.1826     0.0025 C.ar    
  14 C14            1.1639     3.5480     0.0105 C.ar    
  15 C15           -0.0553     4.2286     0.0267 C.ar    
  16 C16           -1.2556     3.5150     0.0392 C.ar    
  17 C17           -0.0754     5.7095     0.0359 C.2     
  18 C18            0.3922     6.6225    -1.0160 C.2     
  19 C19           -0.5391     6.5355     1.0234 C.2     
  20 N20           -0.3641     7.8015     0.5999 N.pl3   
  21 N21            0.1684     7.8405    -0.5659 N.2     
  22 C22           -1.1355     6.1076     2.3396 C.3     
  23 C23            0.9907     6.2509    -2.3129 C.2     
  24 N24            1.3725     7.2107    -3.1787 N.am    
  25 O25            1.1394     5.0789    -2.6004 O.2     
  26 H26           -1.8592    -0.5245     0.9070 H       
  27 H27           -1.8762    -0.5150    -0.8728 H       
  28 H28           -0.4261    -2.5263    -0.8975 H       
  29 H29           -0.4091    -2.5358     0.8824 H       
  30 H30           -2.1679     1.5980     0.0410 H       
  31 H31           -1.5824    -4.5869    -1.2316 H       
  32 H32           -1.3346    -4.8488     0.5123 H       
  33 H33           -3.1869    -6.2606    -0.4046 H       
  34 H34           -3.7584    -5.1242     0.8417 H       
  35 H35           -5.2057    -2.8846    -1.6552 H       
  36 H36           -4.9640    -3.1082     0.0948 H       
  37 H37           -3.3819    -1.4252    -0.7560 H       
  38 H38           -2.7847    -2.5763    -1.9764 H       
  39 H39            2.1280     1.6566    -0.0094 H       
  40 H40            2.0910     4.1019     0.0046 H       
  41 H41           -2.1974     4.0435     0.0518 H       
  42 H42           -0.6101     8.5869     1.1133 H       
  43 H43           -0.3450     6.0177     3.0846 H       
  44 H44           -1.8617     6.8512     2.6682 H       
  45 H45           -1.6313     5.1446     2.2179 H       
  46 H46            1.2539     8.1457    -2.9493 H       
  47 H47            1.7659     6.9665    -4.0310 H       
@<TRIPOS>BOND
   1    1    2 1
   2    1   13 ar
   3    1    7 ar
   4    2    3 1
   5    2    6 2
   6    3    4 1
   7    3   26 1
   8    3   27 1
   9    4    5 1
  10    4   28 1
  11    4   29 1
  12    5    8 1
  13    5   12 1
  14    7   16 ar
  15    7   30 1
  16    8    9 1
  17    8   31 1
  18    8   32 1
  19    9   10 1
  20    9   33 1
  21    9   34 1
  22   10   11 1
  23   11   12 1
  24   11   35 1
  25   11   36 1
  26   12   37 1
  27   12   38 1
  28   13   14 ar
  29   13   39 1
  30   14   15 ar
  31   14   40 1
  32   15   16 ar
  33   15   17 1
  34   16   41 1
  35   17   18 1
  36   17   19 2
  37   18   23 1
  38   18   21 2
  39   19   20 1
  40   19   22 1
  41   20   21 1
  42   20   42 1
  43   22   43 1
  44   22   44 1
  45   22   45 1
  46   23   24 am
  47   23   25 2
  48   24   46 1
  49   24   47 1

#	End of record

