#	Name: ASD02562088
#	Creating user name:	WinNT
#	Creation time:	15. 06. 2019 20:25

#	Modifying user name:	WinNT
#	Modification time:	15. 06. 2019 20:25

#	Program:	/corina/corina34_cracker 3.40 0067  02.08.2006

@<TRIPOS>MOLECULE
ASD02562088
  48   50    0    0    0
SMALL
NO_CHARGES


@<TRIPOS>ATOM
   1 C1            -1.5215     3.4243     1.7662 C.ar    
   2 N2            -0.4785     2.7009     2.1453 N.ar    
   3 C3             0.3913     2.2423     1.2572 C.ar    
   4 C4             0.2030     2.5254    -0.0815 C.ar    
   5 C5            -0.9057     3.2903    -0.4511 C.ar    
   6 N6            -1.7408     3.7132     0.4922 N.ar    
   7 N7            -1.1347     3.5992    -1.7834 N.pl3   
   8 N8            -2.4083     3.8854     2.7257 N.pl3   
   9 C9            -2.3156     4.2372    -2.1577 C.ar    
  10 C10           -2.1196     3.7185     4.0790 C.ar    
  11 C11           -1.7148     4.8100     4.8420 C.ar    
  12 C12           -2.8489     4.0227    -3.4250 C.ar    
  13 C13           -4.0154     4.6515    -3.7980 C.ar    
  14 C14           -4.6645     5.5058    -2.9018 C.ar    
  15 C15           -4.1261     5.7186    -1.6293 C.ar    
  16 C16           -2.9619     5.0829    -1.2612 C.ar    
  17 C17           -2.2424     2.4620     4.6649 C.ar    
  18 C18           -1.9589     2.2928     6.0009 C.ar    
  19 C19           -1.5459     3.3866     6.7707 C.ar    
  20 C20           -1.4288     4.6497     6.1785 C.ar    
  21 C21           -1.5891     6.1692     4.2034 C.3     
  22 C22           -2.6870     1.2851     3.8352 C.3     
  23 C23           -5.8778     6.1619    -3.2866 C.1     
  24 N24           -6.8403     6.6824    -3.5918 N.1     
  25 C25           -1.2420     3.2107     8.1981 C.2     
  26 C26           -0.8440     4.2669     8.9386 C.2     
  27 C27           -0.5479     4.0956    10.3292 C.1     
  28 N28           -0.3130     3.9596    11.4323 N.1     
  29 N29            1.1548     2.0299    -1.1012 N.pl3   
  30 O30            2.1865     1.4821    -0.7561 O.2     
  31 O31            0.9062     2.1699    -2.2853 O.2     
  32 H32            1.2386     1.6537     1.5767 H       
  33 H33           -0.4729     3.3710    -2.4549 H       
  34 H34           -3.2300     4.3244     2.4556 H       
  35 H35           -2.3470     3.3626    -4.1168 H       
  36 H36           -4.4284     4.4852    -4.7820 H       
  37 H37           -4.6250     6.3780    -0.9346 H       
  38 H38           -2.5456     5.2465    -0.2782 H       
  39 H39           -2.0551     1.3176     6.4549 H       
  40 H40           -1.1102     5.4962     6.7687 H       
  41 H41           -2.5393     6.6973     4.2829 H       
  42 H42           -0.8126     6.7396     4.7130 H       
  43 H43           -1.3245     6.0537     3.1523 H       
  44 H44           -1.8198     0.6824     3.5654 H       
  45 H45           -3.3863     0.6784     4.4106 H       
  46 H46           -3.1765     1.6433     2.9296 H       
  47 H47           -1.3372     2.2365     8.6544 H       
  48 H48           -0.7488     5.2412     8.4823 H       
@<TRIPOS>BOND
   1    1    2 ar
   2    1    8 1
   3    1    6 ar
   4    2    3 ar
   5    3    4 ar
   6    3   32 1
   7    4    5 ar
   8    4   29 1
   9    5    6 ar
  10    5    7 1
  11    7    9 1
  12    7   33 1
  13    8   10 1
  14    8   34 1
  15    9   12 ar
  16    9   16 ar
  17   10   11 ar
  18   10   17 ar
  19   11   21 1
  20   11   20 ar
  21   12   13 ar
  22   12   35 1
  23   13   14 ar
  24   13   36 1
  25   14   15 ar
  26   14   23 1
  27   15   16 ar
  28   15   37 1
  29   16   38 1
  30   17   18 ar
  31   17   22 1
  32   18   19 ar
  33   18   39 1
  34   19   20 ar
  35   19   25 1
  36   20   40 1
  37   21   41 1
  38   21   42 1
  39   21   43 1
  40   22   44 1
  41   22   45 1
  42   22   46 1
  43   23   24 3
  44   25   26 2
  45   25   47 1
  46   26   27 1
  47   26   48 1
  48   27   28 3
  49   29   30 2
  50   29   31 2

#	End of record

