#	Name: ASD01412040
#	Creating user name:	WinNT
#	Creation time:	15. 06. 2019 19:19

#	Modifying user name:	WinNT
#	Modification time:	15. 06. 2019 19:19

#	Program:	/corina/corina34_cracker 3.40 0067  02.08.2006

@<TRIPOS>MOLECULE
ASD01412040
  77   81    0    0    0
SMALL
NO_CHARGES


@<TRIPOS>ATOM
   1 C1            -1.4925     2.3775     2.7370 C.ar    
   2 C2            -1.2780     1.0421     2.3402 C.ar    
   3 C3            -2.3665     0.2375     1.9736 C.ar    
   4 C4            -3.6288     0.7459     2.0005 C.ar    
   5 C5            -3.8519     2.0736     2.3936 C.ar    
   6 C6            -2.7829     2.8849     2.7666 C.ar    
   7 N7            -0.2599     2.9187     3.0360 N.pl3   
   8 C8             0.7054     1.9596     2.8360 C.2     
   9 C9             0.1170     0.8117     2.4139 C.2     
  10 C10            0.8226    -0.4780     2.0829 C.3     
  11 C11            0.3040    -1.5918     2.9948 C.3     
  12 C12            1.0205    -2.9012     2.6586 C.3     
  13 C13            0.7502    -3.2702     1.1986 C.3     
  14 C14            1.2688    -2.1565     0.2867 C.3     
  15 C15            0.5524    -0.8470     0.6228 C.3     
  16 C16           -5.2259     2.6119     2.4172 C.2     
  17 O17           -5.4224     3.7625     2.7575 O.2     
  18 N18           -6.2630     1.8279     2.0615 N.am    
  19 C19           -7.6269     2.3622     2.0849 C.3     
  20 C20           -8.5932     1.2920     1.6468 C.2     
  21 C21           -7.9740     2.8123     3.5054 C.3     
  22 C22           -7.7231     3.5566     1.1336 C.3     
  23 C23           -9.1044    -0.6206     0.3345 C.ar    
  24 O24           -9.6970     1.2307     2.1455 O.2     
  25 C25          -10.4737    -0.3777     0.2805 C.ar    
  26 C26          -11.3390    -1.3831    -0.0856 C.ar    
  27 C27          -10.8399    -2.6518    -0.4044 C.ar    
  28 C28           -9.4615    -2.8914    -0.3492 C.ar    
  29 C29           -8.6038    -1.8801     0.0185 C.ar    
  30 C30          -11.7600    -3.7287    -0.7955 C.2     
  31 C31          -12.8099    -3.4605    -1.6023 C.2     
  32 N32           -8.2307     0.4029     0.7010 N.am    
  33 C33           -0.0182     4.2898     3.4919 C.3     
  34 C34            2.1560     2.1492     3.0474 C.ar    
  35 N35            3.0329     1.4579     2.3226 N.ar    
  36 C36            4.3270     1.6309     2.5154 C.ar    
  37 C37            4.7740     2.5296     3.4695 C.ar    
  38 N38            3.9082     3.2190     4.1930 N.ar    
  39 C39            2.6119     3.0586     4.0044 C.ar    
  40 C40          -12.8316    -2.2646    -2.3636 C.2     
  41 O41          -11.8407    -1.5611    -2.4195 O.2     
  42 O42          -13.9513    -1.9067    -3.0261 O.3     
  43 H43           -2.2031    -0.7858     1.6694 H       
  44 H44           -4.4642     0.1228     1.7170 H       
  45 H45           -2.9571     3.9070     3.0689 H       
  46 H46            1.8951    -0.3546     2.2339 H       
  47 H47            0.4965    -1.3289     4.0349 H       
  48 H48           -0.7684    -1.7152     2.8437 H       
  49 H49            2.0929    -2.7778     2.8097 H       
  50 H50            0.6510    -3.6947     3.3083 H       
  51 H51            1.2606    -4.2031     0.9591 H       
  52 H52           -0.3222    -3.3936     1.0475 H       
  53 H53            2.3412    -2.0330     0.4378 H       
  54 H54            1.0763    -2.4193    -0.7535 H       
  55 H55           -0.5200    -0.9705     0.4718 H       
  56 H56            0.9219    -0.0536    -0.0268 H       
  57 H57           -6.1063     0.9100     1.7900 H       
  58 H58           -7.2750     3.5864     3.8222 H       
  59 H59           -8.9887     3.2099     3.5228 H       
  60 H60           -7.9054     1.9614     4.1831 H       
  61 H61           -7.4758     3.2359     0.1216 H       
  62 H62           -8.7379     3.9541     1.1510 H       
  63 H63           -7.0242     4.3307     1.4504 H       
  64 H64          -10.8578     0.6013     0.5266 H       
  65 H65          -12.4016    -1.1939    -0.1265 H       
  66 H66           -9.0722    -3.8685    -0.5939 H       
  67 H67           -7.5404    -2.0638     0.0611 H       
  68 H68          -11.5969    -4.7346    -0.4379 H       
  69 H69          -13.6327    -4.1570    -1.6674 H       
  70 H70           -7.3622     0.4749     0.2751 H       
  71 H71           -0.0512     4.3218     4.5809 H       
  72 H72            0.9623     4.6195     3.1482 H       
  73 H73           -0.7859     4.9484     3.0856 H       
  74 H74            5.0389     1.0701     1.9280 H       
  75 H75            5.8340     2.6677     3.6236 H       
  76 H76            1.9052     3.6220     4.5956 H       
  77 H77          -13.8700    -1.0773    -3.5165 H       
@<TRIPOS>BOND
   1    1    2 ar
   2    1    7 1
   3    1    6 ar
   4    2    3 ar
   5    2    9 1
   6    3    4 ar
   7    3   43 1
   8    4    5 ar
   9    4   44 1
  10    5    6 ar
  11    5   16 1
  12    6   45 1
  13    7    8 1
  14    7   33 1
  15    8    9 2
  16    8   34 1
  17    9   10 1
  18   10   11 1
  19   10   15 1
  20   10   46 1
  21   11   12 1
  22   11   47 1
  23   11   48 1
  24   12   13 1
  25   12   49 1
  26   12   50 1
  27   13   14 1
  28   13   51 1
  29   13   52 1
  30   14   15 1
  31   14   53 1
  32   14   54 1
  33   15   55 1
  34   15   56 1
  35   16   17 2
  36   16   18 am
  37   18   19 1
  38   18   57 1
  39   19   20 1
  40   19   21 1
  41   19   22 1
  42   20   24 2
  43   20   32 am
  44   21   58 1
  45   21   59 1
  46   21   60 1
  47   22   61 1
  48   22   62 1
  49   22   63 1
  50   23   25 ar
  51   23   29 ar
  52   23   32 1
  53   25   26 ar
  54   25   64 1
  55   26   27 ar
  56   26   65 1
  57   27   28 ar
  58   27   30 1
  59   28   29 ar
  60   28   66 1
  61   29   67 1
  62   30   31 2
  63   30   68 1
  64   31   40 1
  65   31   69 1
  66   32   70 1
  67   33   71 1
  68   33   72 1
  69   33   73 1
  70   34   35 ar
  71   34   39 ar
  72   35   36 ar
  73   36   37 ar
  74   36   74 1
  75   37   38 ar
  76   37   75 1
  77   38   39 ar
  78   39   76 1
  79   40   41 2
  80   40   42 1
  81   42   77 1

#	End of record

