#	Name: ASD05060069
#	Creating user name:	WinNT
#	Creation time:	15. 06. 2019 20:56

#	Modifying user name:	WinNT
#	Modification time:	15. 06. 2019 20:56

#	Program:	/corina/corina34_cracker 3.40 0067  02.08.2006

@<TRIPOS>MOLECULE
ASD05060069
  37   39    0    0    0
SMALL
NO_CHARGES


@<TRIPOS>ATOM
   1 C1             4.2773    -4.6671     1.7764 C.ar    
   2 C2             5.1286    -4.6486     2.8412 C.ar    
   3 C3             4.1011    -3.5342     0.9837 C.ar    
   4 C4             4.7723    -2.3807     1.2498 C.ar    
   5 C5             5.6588    -2.3245     2.3400 C.ar    
   6 C6             5.8352    -3.4771     3.1428 C.ar    
   7 N7             6.3303    -1.2034     2.6235 N.ar    
   8 C8             7.1605    -1.1330     3.6363 C.ar    
   9 C9             7.3911    -2.2182     4.4735 C.ar    
  10 C10            6.7299    -3.4169     4.2413 C.ar    
  11 C11            6.9507    -4.5935     5.1130 C.ar    
  12 C12            6.4480    -4.6049     6.4142 C.ar    
  13 C13            7.6572    -5.6969     4.6340 C.ar    
  14 C14            7.8595    -6.7904     5.4502 C.ar    
  15 C15            7.3629    -6.7941     6.7429 C.ar    
  16 C16            6.6563    -5.7037     7.2218 C.ar    
  17 Cl17           7.6207    -8.1739     7.7644 Cl      
  18 Br18           3.3300    -6.2513     1.3653 Br      
  19 C19            8.3540    -2.0949     5.6262 C.3     
  20 C20            9.7196    -2.5613     5.1921 C.2     
  21 O21            8.4268    -0.7297     6.0421 O.3     
  22 C22            8.7128    -0.5599     7.4318 C.3     
  23 O23            9.9181    -3.8494     4.8707 O.3     
  24 O24           10.6359    -1.7759     5.1333 O.2     
  25 H25            5.2573    -5.5320     3.4489 H       
  26 H26            3.4216    -3.5726     0.1451 H       
  27 H27            4.6250    -1.5117     0.6258 H       
  28 H28            7.6803    -0.2053     3.8250 H       
  29 H29            5.8971    -3.7548     6.7888 H       
  30 H30            8.0447    -5.6951     3.6260 H       
  31 H31            8.4060    -7.6453     5.0803 H       
  32 H32            6.2711    -5.7119     8.2307 H       
  33 H33            8.0071    -2.7097     6.4568 H       
  34 H34            9.6741    -1.0184     7.6636 H       
  35 H35            8.7513     0.5036     7.6675 H       
  36 H36            7.9312    -1.0353     8.0243 H       
  37 H37           10.8111    -4.1012     4.5981 H       
@<TRIPOS>BOND
   1    1    2 ar
   2    1    3 ar
   3    1   18 1
   4    2    6 ar
   5    2   25 1
   6    3    4 ar
   7    3   26 1
   8    4    5 ar
   9    4   27 1
  10    5    6 ar
  11    5    7 ar
  12    6   10 ar
  13    7    8 ar
  14    8    9 ar
  15    8   28 1
  16    9   10 ar
  17    9   19 1
  18   10   11 1
  19   11   12 ar
  20   11   13 ar
  21   12   16 ar
  22   12   29 1
  23   13   14 ar
  24   13   30 1
  25   14   15 ar
  26   14   31 1
  27   15   16 ar
  28   15   17 1
  29   16   32 1
  30   19   20 1
  31   19   21 1
  32   19   33 1
  33   20   23 1
  34   20   24 2
  35   21   22 1
  36   22   34 1
  37   22   35 1
  38   22   36 1
  39   23   37 1

#	End of record

