#	Name: ASD05430179
#	Creating user name:	WinNT
#	Creation time:	15. 06. 2019 20:59

#	Modifying user name:	WinNT
#	Modification time:	15. 06. 2019 20:59

#	Program:	/corina/corina34_cracker 3.40 0067  02.08.2006

@<TRIPOS>MOLECULE
ASD05430179
  73   80    0    0    0
SMALL
NO_CHARGES


@<TRIPOS>ATOM
   1 C1            -0.0168     1.3884     0.0097 C.ar    
   2 C2             0.0021    -0.0041     0.0020 C.ar    
   3 C3            -1.1916    -0.7102     0.0096 C.ar    
   4 C4            -2.3954    -0.0318     0.0247 C.ar    
   5 C5            -2.4137     1.3509     0.0323 C.ar    
   6 C6            -1.2281     2.0614     0.0306 C.ar    
   7 C7            -4.2424     0.8795    -2.2183 C.3     
   8 C8            -4.6876     1.8430    -1.1179 C.3     
   9 C9            -3.7297     2.0850     0.0487 C.3     
  10 C10           -5.1460     0.9746    -3.4416 C.3     
  11 C11           -6.5730     1.3803    -3.0739 C.3     
  12 N12           -6.5434     2.7162    -2.4793 N.pl3   
  13 C13           -5.5270     3.0070    -1.5858 C.2     
  14 N14           -5.3137     4.2074    -1.1995 N.2     
  15 C15           -8.5951     3.7532    -1.7018 C.ar    
  16 C16           -9.9262     3.9188    -2.0363 C.ar    
  17 N17            1.2260    -0.6911    -0.0138 N.pl3   
  18 C18           -4.9985     1.2561     0.2594 C.3     
  19 C19            2.2653    -0.4693    -0.8592 C.2     
  20 C20            1.6000    -1.7086     0.8251 C.2     
  21 C21            2.8443    -2.0752     0.4630 C.2     
  22 N22            3.2254    -1.3036    -0.5656 N.2     
  23 C23            3.6679    -3.1613     1.1057 C.3     
  24 O24            1.1502     2.0857     0.0023 O.3     
  25 C25            1.0540     3.5115     0.0109 C.3     
  26 C26           -7.5439     3.7369    -2.7815 C.3     
  27 C27           -6.8408     5.0981    -2.8388 C.3     
  28 O28           -6.0755     5.3011    -1.6551 O.3     
  29 C29          -10.8911     3.9344    -1.0470 C.ar    
  30 C30          -10.5241     3.7840     0.2796 C.ar    
  31 C31           -9.1906     3.6183     0.6134 C.ar    
  32 C32           -8.2270     3.6083    -0.3772 C.ar    
  33 F33          -11.4664     3.7995     1.2475 F       
  34 C34           -4.5641     2.0134    -4.4278 C.3     
  35 C35           -3.7079     1.1389    -5.3729 C.3     
  36 C36           -4.3234    -0.2315    -5.3093 C.ar    
  37 C37           -5.1508    -0.3226    -4.1951 C.ar    
  38 N38           -4.1591    -1.2512    -6.1388 N.ar    
  39 C39           -4.8025    -2.3819    -5.8940 C.ar    
  40 C40           -5.6384    -2.5417    -4.8087 C.ar    
  41 C41           -5.8385    -1.4955    -3.9115 C.ar    
  42 H42           -1.1803    -1.7902     0.0033 H       
  43 H43           -3.3242    -0.5829     0.0302 H       
  44 H44           -1.2458     3.1412     0.0366 H       
  45 H45           -3.2203     1.1202    -2.5106 H       
  46 H46           -4.2709    -0.1395    -1.8326 H       
  47 H47           -3.7045     3.0857     0.4800 H       
  48 H48           -7.1920     1.3932    -3.9710 H       
  49 H49           -6.9815     0.6695    -2.3556 H       
  50 H50          -10.2122     4.0364    -3.0711 H       
  51 H51           -5.8083     1.7114     0.8295 H       
  52 H52           -4.8814     0.1798     0.3860 H       
  53 H53            2.2927     0.2727    -1.6434 H       
  54 H54            1.0102    -2.1343     1.6234 H       
  55 H55            3.4733    -4.1095     0.6045 H       
  56 H56            4.7260    -2.9147     1.0185 H       
  57 H57            3.4000    -3.2454     2.1589 H       
  58 H58            0.5084     3.8441    -0.8722 H       
  59 H59            0.5254     3.8346     0.9077 H       
  60 H60            2.0548     3.9432     0.0036 H       
  61 H61           -8.0083     3.5225    -3.7440 H       
  62 H62           -6.1808     5.1282    -3.7058 H       
  63 H63           -7.5873     5.8875    -2.9267 H       
  64 H64          -11.9309     4.0641    -1.3085 H       
  65 H65           -8.9032     3.5009     1.6478 H       
  66 H66           -7.1868     3.4791    -0.1171 H       
  67 H67           -5.3613     2.5124    -4.9788 H       
  68 H68           -3.9424     2.7389    -3.9031 H       
  69 H69           -3.7528     1.5266    -6.3907 H       
  70 H70           -2.6753     1.1060    -5.0254 H       
  71 H71           -4.6678    -3.2122    -6.5714 H       
  72 H72           -6.1412    -3.4848    -4.6533 H       
  73 H73           -6.4856    -1.5900    -3.0521 H       
@<TRIPOS>BOND
   1    1    2 ar
   2    1   24 1
   3    1    6 ar
   4    2    3 ar
   5    2   17 1
   6    3    4 ar
   7    3   42 1
   8    4    5 ar
   9    4   43 1
  10    5    6 ar
  11    5    9 1
  12    6   44 1
  13    7    8 1
  14    7   10 1
  15    7   45 1
  16    7   46 1
  17    8    9 1
  18    8   18 1
  19    8   13 1
  20    9   18 1
  21    9   47 1
  22   10   11 1
  23   10   34 1
  24   10   37 1
  25   11   12 1
  26   11   48 1
  27   11   49 1
  28   12   13 1
  29   12   26 1
  30   13   14 2
  31   14   28 1
  32   15   16 ar
  33   15   26 1
  34   15   32 ar
  35   16   29 ar
  36   16   50 1
  37   17   19 1
  38   17   20 1
  39   18   51 1
  40   18   52 1
  41   19   22 2
  42   19   53 1
  43   20   21 2
  44   20   54 1
  45   21   22 1
  46   21   23 1
  47   23   55 1
  48   23   56 1
  49   23   57 1
  50   24   25 1
  51   25   58 1
  52   25   59 1
  53   25   60 1
  54   26   27 1
  55   26   61 1
  56   27   28 1
  57   27   62 1
  58   27   63 1
  59   29   30 ar
  60   29   64 1
  61   30   31 ar
  62   30   33 1
  63   31   32 ar
  64   31   65 1
  65   32   66 1
  66   34   35 1
  67   34   67 1
  68   34   68 1
  69   35   36 1
  70   35   69 1
  71   35   70 1
  72   36   37 ar
  73   36   38 ar
  74   37   41 ar
  75   38   39 ar
  76   39   40 ar
  77   39   71 1
  78   40   41 ar
  79   40   72 1
  80   41   73 1

#	End of record

