#	Name: ASD01884950
#	Creating user name:	WinNT
#	Creation time:	15. 06. 2019 19:49

#	Modifying user name:	WinNT
#	Modification time:	15. 06. 2019 19:49

#	Program:	/corina/corina34_cracker 3.40 0067  02.08.2006

@<TRIPOS>MOLECULE
ASD01884950
  44   47    0    0    0
SMALL
NO_CHARGES


@<TRIPOS>ATOM
   1 C1             0.0401     1.4363    -0.2845 C.ar    
   2 C2             0.1469     0.1525    -0.7773 C.ar    
   3 C3            -0.9316    -0.4281    -1.4458 C.ar    
   4 C4            -2.1141     0.2924    -1.6133 C.ar    
   5 C5            -2.2144     1.5756    -1.1182 C.ar    
   6 C6            -1.1421     2.1489    -0.4485 C.ar    
   7 C7            -0.8207    -1.8064    -1.9769 C.2     
   8 C8            -1.6117    -2.8172    -1.4634 C.2     
   9 C9             0.0935    -2.0992    -3.0202 C.2     
  10 C10            0.1945    -3.3504    -3.5026 C.2     
  11 N11           -0.5795    -4.3602    -2.9988 N.pl3   
  12 C12           -1.4840    -4.1167    -1.9880 C.2     
  13 Cl13          -2.7451    -2.4884    -0.1902 Cl      
  14 C14           -0.6906    -5.6882    -3.2834 C.2     
  15 N15           -1.6019    -6.1868    -2.4819 N.2     
  16 N16           -2.0748    -5.2675    -1.7161 N.2     
  17 O17            0.0120    -6.3697    -4.2235 O.3     
  18 O18           -1.2444     3.4135     0.0381 O.3     
  19 C19           -2.4458     4.0376    -0.0573 C.ar    
  20 Cl20           1.3808     2.1603     0.5474 Cl      
  21 C21           -0.2650    -7.7654    -4.3552 C.3     
  22 C22           -3.3987     3.9104     0.9504 C.ar    
  23 C23           -4.6082     4.5608     0.8160 C.ar    
  24 N24           -4.8663     5.2950    -0.2496 N.ar    
  25 C25           -3.9894     5.4397    -1.2252 C.ar    
  26 C26           -2.7552     4.8265    -1.1631 C.ar    
  27 C27            0.6167    -8.3587    -5.4559 C.3     
  28 C28           -4.3382     6.2906    -2.4191 C.3     
  29 H29            1.0640    -0.4025    -0.6463 H       
  30 H30           -2.9504    -0.1542    -2.1306 H       
  31 H31           -3.1299     2.1336    -1.2477 H       
  32 H32            0.7114    -1.3138    -3.4298 H       
  33 H33            0.8946    -3.5607    -4.2975 H       
  34 H34           -0.0551    -8.2682    -3.4111 H       
  35 H35           -1.3142    -7.9047    -4.6155 H       
  36 H36           -3.1939     3.3107     1.8249 H       
  37 H37           -5.3531     4.4674     1.5924 H       
  38 H38           -2.0421     4.9490    -1.9649 H       
  39 H39            0.4068    -7.8560    -6.4000 H       
  40 H40            1.6659    -8.2195    -5.1956 H       
  41 H41            0.4054    -9.4233    -5.5564 H       
  42 H42           -4.0317     7.3201    -2.2335 H       
  43 H43           -3.8206     5.9105    -3.2998 H       
  44 H44           -5.4146     6.2567    -2.5874 H       
@<TRIPOS>BOND
   1    1    2 ar
   2    1   20 1
   3    1    6 ar
   4    2    3 ar
   5    2   29 1
   6    3    4 ar
   7    3    7 1
   8    4    5 ar
   9    4   30 1
  10    5    6 ar
  11    5   31 1
  12    6   18 1
  13    7    8 2
  14    7    9 1
  15    8   13 1
  16    8   12 1
  17    9   10 2
  18    9   32 1
  19   10   11 1
  20   10   33 1
  21   11   12 1
  22   11   14 1
  23   12   16 2
  24   14   15 2
  25   14   17 1
  26   15   16 1
  27   17   21 1
  28   18   19 1
  29   19   22 ar
  30   19   26 ar
  31   21   27 1
  32   21   34 1
  33   21   35 1
  34   22   23 ar
  35   22   36 1
  36   23   24 ar
  37   23   37 1
  38   24   25 ar
  39   25   26 ar
  40   25   28 1
  41   26   38 1
  42   27   39 1
  43   27   40 1
  44   27   41 1
  45   28   42 1
  46   28   43 1
  47   28   44 1

#	End of record

