#	Name: ASD00840707
#	Creating user name:	WinNT
#	Creation time:	15. 06. 2019 18:39

#	Modifying user name:	WinNT
#	Modification time:	15. 06. 2019 18:39

#	Program:	/corina/corina34_cracker 3.40 0067  02.08.2006

@<TRIPOS>MOLECULE
ASD00840707
  94   99    0    0    0
SMALL
NO_CHARGES


@<TRIPOS>ATOM
   1 F1             6.0849    -1.9616    -1.9967 F       
   2 N2             1.0860     1.4618    -0.7391 N.ar    
   3 C3             1.3433     0.1693    -0.8500 C.ar    
   4 C4             1.2529    -0.6677     0.2550 C.ar    
   5 C5             0.8891    -0.1316     1.4778 C.ar    
   6 C6             0.6274     1.2298     1.5523 C.ar    
   7 C7             0.7369     2.0019     0.4132 C.ar    
   8 C8             1.5465    -2.1400     0.1238 C.3     
   9 C9             1.2528    -2.8573     1.4242 C.2     
  10 C10            0.7316    -2.7478    -1.0196 C.3     
  11 C11           -0.7311    -2.4553    -0.8047 C.2     
  12 N12           -1.6520    -2.9743    -1.6408 N.am    
  13 O13           -1.0795    -1.7529     0.1206 O.2     
  14 C14           -3.0725    -2.6137    -1.5169 C.3     
  15 C15           -3.5838    -2.1703    -2.8918 C.3     
  16 N16           -3.2927    -3.2175    -3.8800 N.3     
  17 C17           -1.8457    -3.4217    -4.0295 C.3     
  18 C18           -1.2622    -3.9117    -2.7051 C.3     
  19 C19           -3.9172    -2.9090    -5.1734 C.3     
  20 C20           -3.4913    -3.9532    -6.2092 C.3     
  21 C21           -4.1926    -3.6620    -7.5379 C.3     
  22 N22           -5.6476    -3.7035    -7.3444 N.3     
  23 C23           -6.0857    -2.6778    -6.3892 C.3     
  24 C24           -5.4410    -2.9396    -5.0261 C.3     
  25 C25           -6.3533    -3.5656    -8.6254 C.3     
  26 O26            0.1767    -2.9316     1.9787 O.2     
  27 N27            2.4080    -3.3969     1.8482 N.am    
  28 C28            3.0244    -2.3675    -0.0963 C.ar    
  29 C29            3.4672    -3.1281     0.9787 C.ar    
  30 C30            3.8934    -1.9769    -1.0900 C.ar    
  31 C31            5.2284    -2.3431    -1.0240 C.ar    
  32 C32            5.6817    -3.1016     0.0434 C.ar    
  33 C33            4.8101    -3.4934     1.0400 C.ar    
  34 Cl34           7.3535    -3.5614     0.1279 Cl      
  35 C35            2.2621    -5.9650     2.8270 C.ar    
  36 C36            1.0088    -6.3589     2.3805 C.ar    
  37 C37            3.2795    -6.8932     2.9411 C.ar    
  38 C38            3.0519    -8.2152     2.6106 C.ar    
  39 C39            1.8000    -8.6143     2.1635 C.ar    
  40 C40            0.7777    -7.6852     2.0486 C.ar    
  41 O41            1.5766    -9.9149     1.8390 O.3     
  42 O42            0.0086    -5.4458     2.2689 O.3     
  43 C43           -1.2555    -5.9219     1.8028 C.3     
  44 C44            2.6753   -10.8172     1.9821 C.3     
  45 C45           -7.8408    -3.8607    -8.4226 C.3     
  46 O46            1.6985    -0.3441    -2.0546 O.3     
  47 C47            2.2060    -0.1749    -4.4113 C.3     
  48 C48            1.6658     0.5441    -3.1735 C.3     
  49 S49            2.5586    -4.2784     3.2420 S.o2    
  50 O50            3.9244    -4.1935     3.6249 O.2     
  51 O51            1.4883    -3.8789     4.0870 O.2     
  52 H52            0.8103    -0.7579     2.3540 H       
  53 H53            0.3408     1.6799     2.4913 H       
  54 H54            0.5347     3.0615     0.4659 H       
  55 H55            1.0537    -2.3138    -1.9661 H       
  56 H56            0.8868    -3.8265    -1.0429 H       
  57 H57           -3.6415    -3.4787    -1.1762 H       
  58 H58           -3.1819    -1.7961    -0.8045 H       
  59 H59           -4.6601    -2.0048    -2.8435 H       
  60 H60           -3.0860    -1.2458    -3.1842 H       
  61 H61           -1.6614    -4.1638    -4.8063 H       
  62 H62           -1.3720    -2.4797    -4.3060 H       
  63 H63           -0.1755    -3.9547    -2.7774 H       
  64 H64           -1.6563    -4.9016    -2.4754 H       
  65 H65           -3.6019    -1.9191    -5.5032 H       
  66 H66           -2.4114    -3.9069    -6.3498 H       
  67 H67           -3.7712    -4.9472    -5.8602 H       
  68 H68           -3.9015    -2.6735    -7.8932 H       
  69 H69           -3.9025    -4.4121    -8.2737 H       
  70 H70           -5.7857    -1.6939    -6.7498 H       
  71 H71           -7.1706    -2.7131    -6.2905 H       
  72 H72           -5.7515    -3.9176    -4.6585 H       
  73 H73           -5.7540    -2.1692    -4.3215 H       
  74 H74           -6.2322    -2.5489    -8.9992 H       
  75 H75           -5.9382    -4.2697    -9.3465 H       
  76 H76            3.5351    -1.3861    -1.9201 H       
  77 H77            5.1703    -4.0845     1.8690 H       
  78 H78            4.2543    -6.5846     3.2888 H       
  79 H79            3.8488    -8.9386     2.6999 H       
  80 H80           -0.1972    -7.9939     1.7012 H       
  81 H81           -1.9627    -5.0935     1.7604 H       
  82 H82           -1.1379    -6.3505     0.8075 H       
  83 H83           -1.6304    -6.6850     2.4850 H       
  84 H84            3.4972   -10.4931     1.3437 H       
  85 H85            3.0045   -10.8270     3.0212 H       
  86 H86            2.3625   -11.8198     1.6907 H       
  87 H87           -7.9618    -4.8774    -8.0488 H       
  88 H88           -8.2559    -3.1566    -7.7015 H       
  89 H89           -8.3644    -3.7584    -9.3731 H       
  90 H90            1.5396    -0.9964    -4.6741 H       
  91 H91            2.2629     0.5270    -5.2433 H       
  92 H92            3.2003    -0.5675    -4.1985 H       
  93 H93            0.6389     0.8605    -3.3563 H       
  94 H94            2.2829     1.4174    -2.9624 H       
@<TRIPOS>BOND
   1    1   31 1
   2    2    3 ar
   3    2    7 ar
   4    3    4 ar
   5    3   46 1
   6    4    5 ar
   7    4    8 1
   8    5    6 ar
   9    5   52 1
  10    6    7 ar
  11    6   53 1
  12    7   54 1
  13    8    9 1
  14    8   10 1
  15    8   28 1
  16    9   26 2
  17    9   27 am
  18   10   11 1
  19   10   55 1
  20   10   56 1
  21   11   12 am
  22   11   13 2
  23   12   14 1
  24   12   18 1
  25   14   15 1
  26   14   57 1
  27   14   58 1
  28   15   16 1
  29   15   59 1
  30   15   60 1
  31   16   17 1
  32   16   19 1
  33   17   18 1
  34   17   61 1
  35   17   62 1
  36   18   63 1
  37   18   64 1
  38   19   20 1
  39   19   24 1
  40   19   65 1
  41   20   21 1
  42   20   66 1
  43   20   67 1
  44   21   22 1
  45   21   68 1
  46   21   69 1
  47   22   23 1
  48   22   25 1
  49   23   24 1
  50   23   70 1
  51   23   71 1
  52   24   72 1
  53   24   73 1
  54   25   45 1
  55   25   74 1
  56   25   75 1
  57   27   49 am
  58   27   29 1
  59   28   29 ar
  60   28   30 ar
  61   29   33 ar
  62   30   31 ar
  63   30   76 1
  64   31   32 ar
  65   32   33 ar
  66   32   34 1
  67   33   77 1
  68   35   36 ar
  69   35   37 ar
  70   35   49 1
  71   36   42 1
  72   36   40 ar
  73   37   38 ar
  74   37   78 1
  75   38   39 ar
  76   38   79 1
  77   39   40 ar
  78   39   41 1
  79   40   80 1
  80   41   44 1
  81   42   43 1
  82   43   81 1
  83   43   82 1
  84   43   83 1
  85   44   84 1
  86   44   85 1
  87   44   86 1
  88   45   87 1
  89   45   88 1
  90   45   89 1
  91   46   48 1
  92   47   48 1
  93   47   90 1
  94   47   91 1
  95   47   92 1
  96   48   93 1
  97   48   94 1
  98   49   50 2
  99   49   51 2

#	End of record

