#	Name: ASD00731025
#	Creating user name:	WinNT
#	Creation time:	15. 06. 2019 18:37

#	Modifying user name:	WinNT
#	Modification time:	15. 06. 2019 18:37

#	Program:	/corina/corina34_cracker 3.40 0067  02.08.2006

@<TRIPOS>MOLECULE
ASD00731025
 241  243    0    0    0
SMALL
NO_CHARGES


@<TRIPOS>ATOM
   1 C1            -0.0144     1.2086     0.0087 C.2     
   2 O2             0.0021    -0.0041     0.0020 O.2     
   3 N3             2.4066     1.0431    -0.0153 N.am    
   4 C4             1.2803     1.9798     0.0005 C.3     
   5 C5            -3.5426     1.9694    -0.5709 C.2     
   6 O6            -3.2948     3.0926    -0.9556 O.2     
   7 N7            -1.1906     1.8666     0.0178 N.am    
   8 C8            -2.4492     1.1169     0.0197 C.3     
   9 C9            -2.8163     0.7401     1.4565 C.3     
  10 O10           -3.0819     1.9267     2.2071 O.3     
  11 C11           -7.1533     1.5413    -1.2439 C.2     
  12 O12           -7.1851     0.4107    -0.8060 O.2     
  13 N13           -4.7957     1.4837    -0.6717 N.am    
  14 C14           -5.8586     2.3124    -1.2459 C.3     
  15 C15          -10.4387     1.8918    -2.8082 C.2     
  16 O16          -10.0681     2.8080    -3.5112 O.2     
  17 N17           -8.2759     2.1079    -1.7288 N.am    
  18 C18           -9.5346     1.3583    -1.7269 C.3     
  19 C19          -10.2188     1.5138    -0.3673 C.3     
  20 C20           -9.3570     0.8606     0.7150 C.3     
  21 C21          -10.0412     1.0161     2.0746 C.3     
  22 N22           -9.2159     0.3906     3.1110 N.pl3   
  23 C23           -9.6306     0.4052     4.4217 C.2     
  24 N24          -10.7579     0.9755     4.7423 N.2     
  25 N25           -8.8562    -0.1818     5.3942 N.pl3   
  26 C26          -13.9731     1.5802    -3.6879 C.2     
  27 O27          -14.2359     0.9982    -2.6568 O.2     
  28 N28          -11.6590     1.3507    -2.9940 N.am    
  29 C29          -12.5379     1.8694    -4.0451 C.3     
  30 C30          -12.1970     1.1932    -5.3746 C.3     
  31 C31          -10.7812     1.5881    -5.7994 C.3     
  32 C32          -10.3936     0.8160    -7.0621 C.3     
  33 C33          -10.7350     3.0903    -6.0858 C.3     
  34 C34          -17.1897     1.6360    -5.4238 C.2     
  35 O35          -16.6672     1.8165    -6.5033 O.2     
  36 N36          -14.9645     1.9684    -4.5142 N.am    
  37 C37          -16.3598     1.6873    -4.1670 C.3     
  38 C38          -16.8897     2.7919    -3.2505 C.3     
  39 C39          -16.1286     2.7626    -1.9236 C.3     
  40 C40          -16.6585     3.8673    -1.0072 C.3     
  41 N41          -15.9297     3.8393     0.2633 N.pl3   
  42 C42          -16.2346     4.7459     1.2508 C.2     
  43 N43          -15.5861     4.7210     2.3812 N.2     
  44 N44          -17.2234     5.6789     1.0460 N.pl3   
  45 C45          -20.7531     1.6651    -6.2388 C.2     
  46 O46          -21.0698     1.9140    -5.0948 O.2     
  47 N47          -18.5126     1.3896    -5.3482 N.am    
  48 C48          -19.3194     1.3397    -6.5700 C.3     
  49 C49          -19.2416    -0.0631    -7.1757 C.3     
  50 C50          -17.8069    -0.3452    -7.6262 C.3     
  51 C51          -17.7291    -1.7481    -8.2319 C.3     
  52 C52          -16.2944    -2.0301    -8.6825 C.3     
  53 N53          -16.2196    -3.3771    -9.2640 N.3     
  54 C54          -23.9841     1.3769    -7.9243 C.2     
  55 O55          -23.5126     0.7350    -8.8390 O.2     
  56 N56          -21.6834     1.6793    -7.2139 N.am    
  57 C57          -23.0772     1.9956    -6.8919 C.3     
  58 C58          -23.2682     3.5136    -6.8894 C.3     
  59 C59          -22.4542     4.1205    -5.7758 C.2     
  60 C60          -22.8884     4.4210    -4.5417 C.2     
  61 N61          -21.8670     4.9564    -3.8052 N.pl3   
  62 C62          -20.7214     5.0149    -4.5668 C.ar    
  63 C63          -19.4273     5.4592    -4.3172 C.ar    
  64 C64          -18.4747     5.3844    -5.3100 C.ar    
  65 C65          -18.7929     4.8696    -6.5590 C.ar    
  66 C66          -20.0584     4.4279    -6.8259 C.ar    
  67 C67          -21.0374     4.4885    -5.8328 C.ar    
  68 C68          -27.4916     1.7103    -8.8984 C.2     
  69 O69          -27.6588     2.6704    -8.1765 O.2     
  70 N70          -25.3191     1.5369    -7.8312 N.am    
  71 C71          -26.2007     0.9354    -8.8348 C.3     
  72 C72          -26.4953    -0.5159    -8.4506 C.3     
  73 C73          -25.2019    -1.3312    -8.5074 C.3     
  74 S74          -25.5513    -3.0520    -8.0519 S.3     
  75 C75          -23.9247    -3.8453    -8.1758 C.3     
  76 C76          -30.8130     1.1954   -10.3360 C.2     
  77 O77          -30.5708     0.0425   -10.6242 O.2     
  78 N78          -28.4604     1.3363    -9.7576 N.am    
  79 C79          -29.7154     2.0895    -9.8194 C.3     
  80 C80          -29.5469     3.2851   -10.7591 C.3     
  81 C81          -28.5363     4.2411   -10.1795 C.ar    
  82 C82          -27.1964     4.1027   -10.4903 C.ar    
  83 C83          -26.2695     4.9796    -9.9586 C.ar    
  84 C84          -26.6823     5.9950    -9.1164 C.ar    
  85 C85          -28.0223     6.1339    -8.8063 C.ar    
  86 C86          -28.9498     5.2597    -9.3415 C.ar    
  87 C87          -33.1138     0.8109   -12.4869 C.2     
  88 O88          -32.2945     1.4714   -13.0805 O.2     
  89 N89          -32.0638     1.6769   -10.4778 N.am    
  90 C90          -33.1308     0.8077   -10.9800 C.3     
  91 C91          -34.4836     1.3223   -10.4841 C.3     
  92 C92          -35.5852     0.3468   -10.9033 C.3     
  93 C93          -36.9190     0.7948   -10.3024 C.3     
  94 C94          -34.7610     2.6976   -11.0945 C.3     
  95 O95          -34.0089     0.0799   -13.1697 O.3     
  96 C96            3.6710     1.5096    -0.0249 C.2     
  97 O97            3.8764     2.7048    -0.0204 O.2     
  98 C98           22.2645    -0.8215    -0.2149 C.3     
  99 C99           21.0883     0.1568    -0.1985 C.3     
 100 C100          19.7738    -0.6261    -0.1901 C.3     
 101 C101          18.5976     0.3522    -0.1736 C.3     
 102 C102          17.2831    -0.4308    -0.1653 C.3     
 103 C103          16.1069     0.5475    -0.1488 C.3     
 104 C104          14.7924    -0.2354    -0.1404 C.3     
 105 C105          13.6162     0.7429    -0.1240 C.3     
 106 C106          12.3017    -0.0401    -0.1156 C.3     
 107 C107          11.1255     0.9382    -0.0991 C.3     
 108 C108           9.8110     0.1553    -0.0908 C.3     
 109 C109           8.6348     1.1336    -0.0743 C.3     
 110 C110           7.3203     0.3506    -0.0660 C.3     
 111 C111           6.1440     1.3289    -0.0495 C.3     
 112 C112           4.8296     0.5460    -0.0411 C.3     
 113 H113           2.2423     0.0871    -0.0189 H       
 114 H114           1.3211     2.6120    -0.8866 H       
 115 H115           1.3381     2.6024     0.8933 H       
 116 H116          -1.2037     2.8365     0.0232 H       
 117 H117          -2.3335     0.2109    -0.5752 H       
 118 H118          -3.7039     0.1075     1.4507 H       
 119 H119          -1.9875     0.1991     1.9132 H       
 120 H120          -3.3217     1.7632     3.1295 H       
 121 H121          -4.9939     0.5854    -0.3641 H       
 122 H122          -5.5971     2.5809    -2.2695 H       
 123 H123          -5.9744     3.2184    -0.6510 H       
 124 H124          -8.2505     3.0122    -2.0791 H       
 125 H125          -9.3297     0.3038    -1.9121 H       
 126 H126         -10.3435     2.5730    -0.1423 H       
 127 H127         -11.1955     1.0308    -0.3947 H       
 128 H128          -9.2323    -0.1987     0.4900 H       
 129 H129          -8.3802     1.3436     0.7424 H       
 130 H130         -10.1658     2.0753     2.2996 H       
 131 H131         -11.0179     0.5330     2.0472 H       
 132 H132          -8.3770    -0.0339     2.8724 H       
 133 H133         -11.0504     0.9858     5.6671 H       
 134 H134          -8.0172    -0.6063     5.1556 H       
 135 H135          -9.1487    -0.1715     6.3190 H       
 136 H136         -11.9554     0.6180    -2.4318 H       
 137 H137         -12.3965     2.9461    -4.1384 H       
 138 H138         -12.2524     0.1110    -5.2565 H       
 139 H139         -12.9075     1.5123    -6.1372 H       
 140 H140         -10.0816     1.3492    -4.9984 H       
 141 H141         -11.0932     1.0548    -7.8631 H       
 142 H142          -9.3850     1.0973    -7.3648 H       
 143 H143         -10.4265    -0.2543    -6.8581 H       
 144 H144         -11.0112     3.6404    -5.1862 H       
 145 H145          -9.7264     3.3716    -6.3885 H       
 146 H146         -11.4346     3.3291    -6.8868 H       
 147 H147         -14.7543     2.4338    -5.3389 H       
 148 H148         -16.4200     0.7283    -3.6524 H       
 149 H149         -16.7478     3.7607    -3.7296 H       
 150 H150         -17.9515     2.6309    -3.0639 H       
 151 H151         -16.2705     1.7939    -1.4446 H       
 152 H152         -15.0668     2.9236    -2.1102 H       
 153 H153         -16.5166     4.8360    -1.4862 H       
 154 H154         -17.7203     3.7063    -0.8206 H       
 155 H155         -15.2320     3.1810     0.4078 H       
 156 H156         -15.8012     5.3607     3.0780 H       
 157 H157         -17.7060     5.6974     0.2048 H       
 158 H158         -17.4385     6.3186     1.7427 H       
 159 H159         -18.9305     1.2452    -4.4848 H       
 160 H160         -18.9382     2.0667    -7.2870 H       
 161 H161         -19.5389    -0.7986    -6.4282 H       
 162 H162         -19.9109    -0.1261    -8.0337 H       
 163 H163         -17.5096     0.3903    -8.3737 H       
 164 H164         -17.1376    -0.2823    -6.7682 H       
 165 H165         -18.0264    -2.4836    -7.4844 H       
 166 H166         -18.3984    -1.8110    -9.0899 H       
 167 H167         -15.9970    -1.2947    -9.4300 H       
 168 H168         -15.6251    -1.9672    -7.8245 H       
 169 H169         -16.8783    -3.4810   -10.0212 H       
 170 H170         -15.2813    -3.5875    -9.5695 H       
 171 H171         -21.4302     1.4802    -8.1288 H       
 172 H172         -23.3222     1.5969    -5.9075 H       
 173 H173         -22.9392     3.9228    -7.8446 H       
 174 H174         -24.3221     3.7469    -6.7379 H       
 175 H175         -23.8950     4.2639    -4.1833 H       
 176 H176         -21.9393     5.2508    -2.8837 H       
 177 H177         -19.1700     5.8617    -3.3486 H       
 178 H178         -17.4705     5.7302    -5.1144 H       
 179 H179         -18.0346     4.8180    -7.3262 H       
 180 H180         -20.2988     4.0289    -7.8003 H       
 181 H181         -25.6961     2.0503    -7.0997 H       
 182 H182         -25.7129     0.9615    -9.8093 H       
 183 H183         -26.9015    -0.5489    -7.4397 H       
 184 H184         -27.2206    -0.9362    -9.1474 H       
 185 H185         -24.7957    -1.2983    -9.5183 H       
 186 H186         -24.4767    -0.9110    -7.8106 H       
 187 H187         -23.5504    -3.7494    -9.1951 H       
 188 H188         -23.2314    -3.3621    -7.4873 H       
 189 H189         -24.0147    -4.9009    -7.9196 H       
 190 H190         -28.3267     0.5684   -10.3350 H       
 191 H191         -29.9754     2.4449    -8.8223 H       
 192 H192         -29.2008     2.9365   -11.7322 H       
 193 H193         -30.5038     3.7941   -10.8748 H       
 194 H194         -26.8739     3.3094   -11.1483 H       
 195 H195         -25.2226     4.8710   -10.2009 H       
 196 H196         -25.9580     6.6796    -8.7004 H       
 197 H197         -28.3448     6.9271    -8.1481 H       
 198 H198         -29.9971     5.3705    -9.1022 H       
 199 H199         -32.2575     2.5990   -10.2473 H       
 200 H200         -32.9731    -0.2079   -10.6170 H       
 201 H201         -34.4651     1.4042    -9.3974 H       
 202 H202         -35.6631     0.3321   -11.9905 H       
 203 H203         -35.3418    -0.6527   -10.5430 H       
 204 H204         -36.8411     0.8094    -9.2153 H       
 205 H205         -37.1624     1.7943   -10.6627 H       
 206 H206         -37.7038     0.0997   -10.6011 H       
 207 H207         -34.7796     2.6158   -12.1812 H       
 208 H208         -35.7248     3.0643   -10.7412 H       
 209 H209         -33.9762     3.3926   -10.7958 H       
 210 H210         -33.9587     0.1138   -14.1348 H       
 211 H211          22.2238    -1.4536     0.6721 H       
 212 H212          22.2068    -1.4441    -1.1078 H       
 213 H213          23.2010    -0.2637    -0.2209 H       
 214 H214          21.1460     0.7794     0.6944 H       
 215 H215          21.1290     0.7890    -1.0855 H       
 216 H216          19.7161    -1.2487    -1.0829 H       
 217 H217          19.7331    -1.2583     0.6969 H       
 218 H218          18.6553     0.9748     0.7192 H       
 219 H219          18.6383     0.9843    -1.0607 H       
 220 H220          17.2254    -1.0534    -1.0581 H       
 221 H221          17.2424    -1.0629     0.7218 H       
 222 H222          16.1646     1.1701     0.7440 H       
 223 H223          16.1476     1.1797    -1.0358 H       
 224 H224          14.7347    -0.8580    -1.0333 H       
 225 H225          14.7517    -0.8676     0.7466 H       
 226 H226          13.6739     1.3655     0.7689 H       
 227 H227          13.6569     1.3750    -1.0110 H       
 228 H228          12.2440    -0.6627    -1.0084 H       
 229 H229          12.2610    -0.6722     0.7714 H       
 230 H230          11.1832     1.5608     0.7937 H       
 231 H231          11.1662     1.5704    -0.9862 H       
 232 H232           9.7533    -0.4673    -0.9836 H       
 233 H233           9.7703    -0.4769     0.7962 H       
 234 H234           8.6925     1.7562     0.8185 H       
 235 H235           8.6755     1.7657    -0.9613 H       
 236 H236           7.2626    -0.2720    -0.9588 H       
 237 H237           7.2796    -0.2815     0.8211 H       
 238 H238           6.2018     1.9515     0.8434 H       
 239 H239           6.1848     1.9611    -0.9365 H       
 240 H240           4.7888    -0.0862     0.8459 H       
 241 H241           4.7719    -0.0766    -0.9340 H       
@<TRIPOS>BOND
   1    1    2 2
   2    1    4 1
   3    1    7 am
   4    3    4 1
   5    3   96 am
   6    3  113 1
   7    4  114 1
   8    4  115 1
   9    5    6 2
  10    5    8 1
  11    5   13 am
  12    7    8 1
  13    7  116 1
  14    8    9 1
  15    8  117 1
  16    9   10 1
  17    9  118 1
  18    9  119 1
  19   10  120 1
  20   11   12 2
  21   11   14 1
  22   11   17 am
  23   13   14 1
  24   13  121 1
  25   14  122 1
  26   14  123 1
  27   15   16 2
  28   15   18 1
  29   15   28 am
  30   17   18 1
  31   17  124 1
  32   18   19 1
  33   18  125 1
  34   19   20 1
  35   19  126 1
  36   19  127 1
  37   20   21 1
  38   20  128 1
  39   20  129 1
  40   21   22 1
  41   21  130 1
  42   21  131 1
  43   22   23 1
  44   22  132 1
  45   23   24 2
  46   23   25 1
  47   24  133 1
  48   25  134 1
  49   25  135 1
  50   26   27 2
  51   26   29 1
  52   26   36 am
  53   28   29 1
  54   28  136 1
  55   29   30 1
  56   29  137 1
  57   30   31 1
  58   30  138 1
  59   30  139 1
  60   31   32 1
  61   31   33 1
  62   31  140 1
  63   32  141 1
  64   32  142 1
  65   32  143 1
  66   33  144 1
  67   33  145 1
  68   33  146 1
  69   34   35 2
  70   34   37 1
  71   34   47 am
  72   36   37 1
  73   36  147 1
  74   37   38 1
  75   37  148 1
  76   38   39 1
  77   38  149 1
  78   38  150 1
  79   39   40 1
  80   39  151 1
  81   39  152 1
  82   40   41 1
  83   40  153 1
  84   40  154 1
  85   41   42 1
  86   41  155 1
  87   42   43 2
  88   42   44 1
  89   43  156 1
  90   44  157 1
  91   44  158 1
  92   45   46 2
  93   45   48 1
  94   45   56 am
  95   47   48 1
  96   47  159 1
  97   48   49 1
  98   48  160 1
  99   49   50 1
 100   49  161 1
 101   49  162 1
 102   50   51 1
 103   50  163 1
 104   50  164 1
 105   51   52 1
 106   51  165 1
 107   51  166 1
 108   52   53 1
 109   52  167 1
 110   52  168 1
 111   53  169 1
 112   53  170 1
 113   54   55 2
 114   54   57 1
 115   54   70 am
 116   56   57 1
 117   56  171 1
 118   57   58 1
 119   57  172 1
 120   58   59 1
 121   58  173 1
 122   58  174 1
 123   59   60 2
 124   59   67 1
 125   60   61 1
 126   60  175 1
 127   61   62 1
 128   61  176 1
 129   62   63 ar
 130   62   67 ar
 131   63   64 ar
 132   63  177 1
 133   64   65 ar
 134   64  178 1
 135   65   66 ar
 136   65  179 1
 137   66   67 ar
 138   66  180 1
 139   68   69 2
 140   68   71 1
 141   68   78 am
 142   70   71 1
 143   70  181 1
 144   71   72 1
 145   71  182 1
 146   72   73 1
 147   72  183 1
 148   72  184 1
 149   73   74 1
 150   73  185 1
 151   73  186 1
 152   74   75 1
 153   75  187 1
 154   75  188 1
 155   75  189 1
 156   76   77 2
 157   76   79 1
 158   76   89 am
 159   78   79 1
 160   78  190 1
 161   79   80 1
 162   79  191 1
 163   80   81 1
 164   80  192 1
 165   80  193 1
 166   81   82 ar
 167   81   86 ar
 168   82   83 ar
 169   82  194 1
 170   83   84 ar
 171   83  195 1
 172   84   85 ar
 173   84  196 1
 174   85   86 ar
 175   85  197 1
 176   86  198 1
 177   87   88 2
 178   87   90 1
 179   87   95 1
 180   89   90 1
 181   89  199 1
 182   90   91 1
 183   90  200 1
 184   91   92 1
 185   91   94 1
 186   91  201 1
 187   92   93 1
 188   92  202 1
 189   92  203 1
 190   93  204 1
 191   93  205 1
 192   93  206 1
 193   94  207 1
 194   94  208 1
 195   94  209 1
 196   95  210 1
 197   96   97 2
 198   96  112 1
 199   98   99 1
 200   98  211 1
 201   98  212 1
 202   98  213 1
 203   99  100 1
 204   99  214 1
 205   99  215 1
 206  100  101 1
 207  100  216 1
 208  100  217 1
 209  101  102 1
 210  101  218 1
 211  101  219 1
 212  102  103 1
 213  102  220 1
 214  102  221 1
 215  103  104 1
 216  103  222 1
 217  103  223 1
 218  104  105 1
 219  104  224 1
 220  104  225 1
 221  105  106 1
 222  105  226 1
 223  105  227 1
 224  106  107 1
 225  106  228 1
 226  106  229 1
 227  107  108 1
 228  107  230 1
 229  107  231 1
 230  108  109 1
 231  108  232 1
 232  108  233 1
 233  109  110 1
 234  109  234 1
 235  109  235 1
 236  110  111 1
 237  110  236 1
 238  110  237 1
 239  111  112 1
 240  111  238 1
 241  111  239 1
 242  112  240 1
 243  112  241 1

#	End of record

