#	Name: ASD02198424
#	Creating user name:	WinNT
#	Creation time:	15. 06. 2019 20:19

#	Modifying user name:	WinNT
#	Modification time:	15. 06. 2019 20:19

#	Program:	/corina/corina34_cracker 3.40 0067  02.08.2006

@<TRIPOS>MOLECULE
ASD02198424
  36   38    0    0    0
SMALL
NO_CHARGES


@<TRIPOS>ATOM
   1 C1             1.5782     1.7353     1.9680 C.ar    
   2 S2             0.7700     0.7312     0.7667 S.o2    
   3 N3             0.0238    -0.5027     1.5810 N.am    
   4 C4            -0.9976    -0.2224     2.4874 C.ar    
   5 C5            -0.7100    -0.1008     3.8652 C.ar    
   6 C6            -1.7626     0.1849     4.7689 C.ar    
   7 C7            -3.0715     0.3426     4.2878 C.ar    
   8 C8            -3.3241     0.2185     2.9401 C.ar    
   9 C9            -2.2899    -0.0571     2.0432 C.ar    
  10 N10            0.5361    -0.2520     4.3221 N.ar    
  11 C11            0.8129    -0.1415     5.5986 C.ar    
  12 C12           -0.1745     0.1382     6.5409 C.ar    
  13 C13           -1.4696     0.3050     6.1413 C.ar    
  14 O14           -0.2660     1.5281     0.2091 O.2     
  15 O15            1.7966     0.1340    -0.0135 O.2     
  16 C16            2.8841     1.4615     2.3331 C.ar    
  17 C17            0.9091     2.8011     2.5422 C.ar    
  18 C18            1.5443     3.5892     3.4855 C.ar    
  19 C19            2.8472     3.3116     3.8542 C.ar    
  20 C20            3.5182     2.2502     3.2765 C.ar    
  21 O21           -4.5925     0.3716     2.4771 O.3     
  22 C22           -5.6056     0.6584     3.4431 C.3     
  23 Cl23          -0.7271     3.1502     2.0789 Cl      
  24 Cl24           3.7269     0.1281     1.6082 Cl      
  25 H25            0.2975    -1.4205     1.4273 H       
  26 H26           -3.8779     0.5602     4.9725 H       
  27 H27           -2.5080    -0.1504     0.9896 H       
  28 H28            1.8331    -0.2711     5.9285 H       
  29 H29            0.0841     0.2234     7.5861 H       
  30 H30           -2.2479     0.5222     6.8579 H       
  31 H31            1.0221     4.4216     3.9336 H       
  32 H32            3.3426     3.9270     4.5905 H       
  33 H33            4.5363     2.0338     3.5649 H       
  34 H34           -6.5685     0.7562     2.9418 H       
  35 H35           -5.6549    -0.1527     4.1696 H       
  36 H36           -5.3661     1.5905     3.9549 H       
@<TRIPOS>BOND
   1    1    2 1
   2    1   16 ar
   3    1   17 ar
   4    2    3 am
   5    2   14 2
   6    2   15 2
   7    3    4 1
   8    3   25 1
   9    4    5 ar
  10    4    9 ar
  11    5    6 ar
  12    5   10 ar
  13    6    7 ar
  14    6   13 ar
  15    7    8 ar
  16    7   26 1
  17    8    9 ar
  18    8   21 1
  19    9   27 1
  20   10   11 ar
  21   11   12 ar
  22   11   28 1
  23   12   13 ar
  24   12   29 1
  25   13   30 1
  26   16   24 1
  27   16   20 ar
  28   17   18 ar
  29   17   23 1
  30   18   19 ar
  31   18   31 1
  32   19   20 ar
  33   19   32 1
  34   20   33 1
  35   21   22 1
  36   22   34 1
  37   22   35 1
  38   22   36 1

#	End of record

