#	Name: ASD02448128
#	Creating user name:	WinNT
#	Creation time:	15. 06. 2019 20:21

#	Modifying user name:	WinNT
#	Modification time:	15. 06. 2019 20:21

#	Program:	/corina/corina34_cracker 3.40 0067  02.08.2006

@<TRIPOS>MOLECULE
ASD02448128
  75   80    0    0    0
SMALL
NO_CHARGES


@<TRIPOS>ATOM
   1 C1            -0.0234     1.3534    -0.0539 C.ar    
   2 C2            -0.0044    -0.0279    -0.0458 C.ar    
   3 C3             1.2069    -0.7075    -0.0373 C.ar    
   4 C4             2.3986     0.0017    -0.0370 C.ar    
   5 C5             2.3768     1.3897    -0.0452 C.ar    
   6 C6             1.1618     2.0636    -0.0536 C.ar    
   7 N7             3.5747     2.1078    -0.0445 N.am    
   8 C8             3.8109     3.4697    -0.5411 C.3     
   9 C9             5.2375     3.8758    -0.3565 C.2     
  10 N10            6.0168     2.9459     0.2135 N.am    
  11 S11            5.0635     1.6179     0.5274 S.o2    
  12 O12            5.6573     4.9617    -0.6961 O.2     
  13 O13            4.9602     1.5004     1.9398 O.2     
  14 O14            5.5082     0.5716    -0.3250 O.2     
  15 N15            1.2249    -2.1094    -0.0286 N.pl3   
  16 C16            1.8566    -2.9190    -0.9345 C.2     
  17 C17            0.6234    -2.9174     0.8838 C.2     
  18 N18            0.8591    -4.1598     0.5669 N.2     
  19 C19            1.6160    -4.1991    -0.5485 C.2     
  20 C20            2.0998    -5.4233    -1.2329 C.ar    
  21 C21            1.7773    -6.6822    -0.7263 C.ar    
  22 C22            2.8732    -5.3195    -2.3871 C.ar    
  23 C23            3.3210    -6.4613    -3.0203 C.ar    
  24 C24            3.0029    -7.7085    -2.5111 C.ar    
  25 C25            2.2304    -7.8182    -1.3675 C.ar    
  26 C26           -0.1840    -2.4529     2.0685 C.3     
  27 C27            0.6966    -2.4093     3.2906 C.ar    
  28 C28            1.4592    -1.2850     3.5507 C.ar    
  29 C29            0.7349    -3.4916     4.1513 C.ar    
  30 C30            1.5389    -3.4567     5.2725 C.ar    
  31 C31            2.3134    -2.3287     5.5366 C.ar    
  32 C32            2.2675    -1.2396     4.6685 C.ar    
  33 C33            3.1795    -2.2854     6.7403 C.ar    
  34 C34            3.9536    -1.1566     7.0033 C.ar    
  35 C35            3.2164    -3.3712     7.6134 C.ar    
  36 C36            4.0222    -3.3279     8.7318 C.ar    
  37 C37            4.7961    -2.2042     8.9883 C.ar    
  38 C38            4.7575    -1.1190     8.1232 C.ar    
  39 Cl39           3.5691    -9.1403    -3.3131 Cl      
  40 Cl40           0.8086    -6.8207     0.7077 Cl      
  41 O41            5.5887    -2.1642    10.0912 O.3     
  42 C42            6.3586    -0.9775    10.2941 C.3     
  43 C43            7.1817    -1.1167    11.5763 C.3     
  44 C44            8.2066    -2.2397    11.4050 C.3     
  45 C45            7.9094     0.1989    11.8605 C.3     
  46 H46           -0.9666     1.8793    -0.0650 H       
  47 H47           -0.9326    -0.5800    -0.0457 H       
  48 H48            3.3416    -0.5247    -0.0301 H       
  49 H49            1.1438     3.1434    -0.0600 H       
  50 H50            3.5624     3.5110    -1.6016 H       
  51 H51            3.1691     4.1638     0.0013 H       
  52 H52            6.9628     3.0322     0.4099 H       
  53 H53            2.4338    -2.6014    -1.7903 H       
  54 H54            3.1216    -4.3471    -2.7861 H       
  55 H55            3.9205    -6.3814    -3.9151 H       
  56 H56            1.9852    -8.7936    -0.9739 H       
  57 H57           -0.5800    -1.4569     1.8703 H       
  58 H58           -1.0090    -3.1445     2.2396 H       
  59 H59            1.4224    -0.4412     2.8775 H       
  60 H60            0.1343    -4.3653     3.9456 H       
  61 H61            1.5675    -4.3020     5.9442 H       
  62 H62            2.8659    -0.3630     4.8682 H       
  63 H63            3.9242    -0.3123     6.3305 H       
  64 H64            2.6143    -4.2454     7.4146 H       
  65 H65            4.0509    -4.1688     9.4089 H       
  66 H66            5.3606    -0.2463     8.3253 H       
  67 H67            7.0280    -0.8294     9.4468 H       
  68 H68            5.6898    -0.1213    10.3828 H       
  69 H69            6.5196    -1.3530    12.4093 H       
  70 H70            8.7931    -2.3388    12.3184 H       
  71 H71            7.6883    -3.1769    11.2025 H       
  72 H72            8.8687    -2.0033    10.5720 H       
  73 H73            7.1792     0.9989    11.9826 H       
  74 H74            8.4958     0.0997    12.7739 H       
  75 H75            8.5714     0.4352    11.0275 H       
@<TRIPOS>BOND
   1    1    2 ar
   2    1    6 ar
   3    1   46 1
   4    2    3 ar
   5    2   47 1
   6    3    4 ar
   7    3   15 1
   8    4    5 ar
   9    4   48 1
  10    5    6 ar
  11    5    7 1
  12    6   49 1
  13    7    8 1
  14    7   11 am
  15    8    9 1
  16    8   50 1
  17    8   51 1
  18    9   10 am
  19    9   12 2
  20   10   11 am
  21   10   52 1
  22   11   13 2
  23   11   14 2
  24   15   16 1
  25   15   17 1
  26   16   19 2
  27   16   53 1
  28   17   18 2
  29   17   26 1
  30   18   19 1
  31   19   20 1
  32   20   21 ar
  33   20   22 ar
  34   21   40 1
  35   21   25 ar
  36   22   23 ar
  37   22   54 1
  38   23   24 ar
  39   23   55 1
  40   24   25 ar
  41   24   39 1
  42   25   56 1
  43   26   27 1
  44   26   57 1
  45   26   58 1
  46   27   28 ar
  47   27   29 ar
  48   28   32 ar
  49   28   59 1
  50   29   30 ar
  51   29   60 1
  52   30   31 ar
  53   30   61 1
  54   31   32 ar
  55   31   33 1
  56   32   62 1
  57   33   34 ar
  58   33   35 ar
  59   34   38 ar
  60   34   63 1
  61   35   36 ar
  62   35   64 1
  63   36   37 ar
  64   36   65 1
  65   37   38 ar
  66   37   41 1
  67   38   66 1
  68   41   42 1
  69   42   43 1
  70   42   67 1
  71   42   68 1
  72   43   44 1
  73   43   45 1
  74   43   69 1
  75   44   70 1
  76   44   71 1
  77   44   72 1
  78   45   73 1
  79   45   74 1
  80   45   75 1

#	End of record

