#	Name: ASD01916005
#	Creating user name:	WinNT
#	Creation time:	15. 06. 2019 20:06

#	Modifying user name:	WinNT
#	Modification time:	15. 06. 2019 20:06

#	Program:	/corina/corina34_cracker 3.40 0067  02.08.2006

@<TRIPOS>MOLECULE
ASD01916005
  41   42    0    0    0
SMALL
NO_CHARGES


@<TRIPOS>ATOM
   1 C1            -0.3166     1.9108    -0.9310 C.ar    
   2 C2            -0.1712     0.5225    -1.0497 C.ar    
   3 C3            -1.2832    -0.2750    -0.8383 C.ar    
   4 C4            -2.5029     0.3280    -0.5163 C.ar    
   5 C5            -3.6953    -0.5144    -0.2883 C.2     
   6 N6            -4.8414     0.0441     0.1488 N.am    
   7 O7            -3.6426    -1.7112    -0.4951 O.2     
   8 C8            -6.0551    -0.7683     0.2631 C.3     
   9 C9            -5.7440    -2.2101    -0.1437 C.3     
  10 C10           -6.5518    -0.7426     1.7100 C.3     
  11 C11           -7.1372    -0.2008    -0.6577 C.3     
  12 C12            0.8032     2.7785    -1.1405 C.1     
  13 C13            1.7212     3.4898    -1.3122 C.1     
  14 C14            2.8410     4.3575    -1.5216 C.ar    
  15 C15            2.6982     5.7466    -1.4036 C.ar    
  16 N16            5.1260     4.6310    -2.0333 N.ar    
  17 C17            3.8126     6.5405    -1.6158 C.ar    
  18 N18           -2.6034     1.6494    -0.4123 N.ar    
  19 C19           -1.5750     2.4393    -0.6102 C.ar    
  20 C20            4.0966     3.8332    -1.8416 C.ar    
  21 C21           -4.8734     1.4636     0.5098 C.3     
  22 F22           -1.1908    -1.6189    -0.9423 F       
  23 C23            5.0200     5.9425    -1.9345 C.ar    
  24 Cl24           3.6969     8.2676    -1.4840 Cl      
  25 H25            0.7841     0.0853    -1.3001 H       
  26 H26           -4.9731    -2.6144     0.5123 H       
  27 H27           -6.6470    -2.8145    -0.0587 H       
  28 H28           -5.3902    -2.2284    -1.1746 H       
  29 H29           -6.7734     0.2846     1.9998 H       
  30 H30           -7.4548    -1.3470     1.7950 H       
  31 H31           -5.7808    -1.1469     2.3660 H       
  32 H32           -6.7834    -0.2192    -1.6885 H       
  33 H33           -8.0403    -0.8053    -0.5727 H       
  34 H34           -7.3589     0.8263    -0.3679 H       
  35 H35            1.7439     6.1863    -1.1540 H       
  36 H36           -1.6969     3.5082    -0.5163 H       
  37 H37            4.2233     2.7645    -1.9321 H       
  38 H38           -5.0349     2.0628    -0.3863 H       
  39 H39           -5.6843     1.6406     1.2163 H       
  40 H40           -3.9248     1.7434     0.9679 H       
  41 H41            5.8908     6.5596    -2.0999 H       
@<TRIPOS>BOND
   1    1    2 ar
   2    1   12 1
   3    1   19 ar
   4    2    3 ar
   5    2   25 1
   6    3    4 ar
   7    3   22 1
   8    4   18 ar
   9    4    5 1
  10    5    6 am
  11    5    7 2
  12    6    8 1
  13    6   21 1
  14    8    9 1
  15    8   10 1
  16    8   11 1
  17    9   26 1
  18    9   27 1
  19    9   28 1
  20   10   29 1
  21   10   30 1
  22   10   31 1
  23   11   32 1
  24   11   33 1
  25   11   34 1
  26   12   13 3
  27   13   14 1
  28   14   15 ar
  29   14   20 ar
  30   15   17 ar
  31   15   35 1
  32   16   23 ar
  33   16   20 ar
  34   17   24 1
  35   17   23 ar
  36   18   19 ar
  37   19   36 1
  38   20   37 1
  39   21   38 1
  40   21   39 1
  41   21   40 1
  42   23   41 1

#	End of record

