#	Name: ASD01420144
#	Creating user name:	WinNT
#	Creation time:	15. 06. 2019 19:20

#	Modifying user name:	WinNT
#	Modification time:	15. 06. 2019 19:20

#	Program:	/corina/corina34_cracker 3.40 0067  02.08.2006

@<TRIPOS>MOLECULE
ASD01420144
  81   82    0    0    0
SMALL
NO_CHARGES


@<TRIPOS>ATOM
   1 C1             1.7908     1.3996     1.0291 C.ar    
   2 C2             1.8133     0.0184     1.0240 C.ar    
   3 C3             1.2128    -0.6801    -0.0134 C.ar    
   4 C4             0.5911     0.0109    -1.0433 C.ar    
   5 C5             0.5714     1.3921    -1.0336 C.ar    
   6 C6             1.1706     2.0859     0.0015 C.ar    
   7 C7             1.1472     3.5927     0.0099 C.3     
   8 C8             2.5557     4.1164     0.1232 C.ar    
   9 C9             0.5173     4.1002    -1.2888 C.3     
  10 C10            0.3232     4.0834     1.2020 C.3     
  11 C11            3.5142     3.7226    -0.7922 C.ar    
  12 C12            2.8860     4.9943     1.1390 C.ar    
  13 C13            4.1763     5.4762     1.2448 C.ar    
  14 C14            5.1412     5.0784     0.3306 C.ar    
  15 C15            4.8059     4.2015    -0.6908 C.ar    
  16 O16            6.4113     5.5510     0.4326 O.3     
  17 C17            7.3520     5.0986    -0.5433 C.3     
  18 C18            8.7170     5.7328    -0.2682 C.3     
  19 C19            9.7523     5.1541    -1.2347 C.3     
  20 O20            8.6310     7.1472    -0.4532 O.3     
  21 N21           11.0839     5.6723    -0.8937 N.3     
  22 O22            1.2339    -2.0389    -0.0209 O.3     
  23 C23            0.5958    -2.6916    -1.1204 C.3     
  24 C24            0.7214    -4.2076    -0.9563 C.3     
  25 C25           -0.0673    -4.9076    -2.0648 C.3     
  26 O26            2.0975    -4.5834    -1.0405 O.3     
  27 N27           -0.0463    -6.3590    -1.8390 N.3     
  28 C28           -0.7955    -7.0657    -2.8865 C.3     
  29 C29           12.1059     5.1368    -1.8029 C.3     
  30 C30           -0.7511    -8.5712    -2.6178 C.3     
  31 C31           -1.4905    -8.8786    -1.3141 C.3     
  32 C32           13.4761     5.6977    -1.4171 C.3     
  33 C33           13.8632     5.1876    -0.0276 C.3     
  34 C34           14.5202     5.2401    -2.4376 C.3     
  35 C35           -1.4236    -9.3155    -3.7731 C.3     
  36 H36            2.2543     1.9438     1.8388 H       
  37 H37            2.2982    -0.5173     1.8267 H       
  38 H38            0.1232    -0.5306    -1.8522 H       
  39 H39            0.0876     1.9305    -1.8351 H       
  40 H40           -0.5015     3.7215    -1.3708 H       
  41 H41            0.5004     5.1901    -1.2828 H       
  42 H42            1.1043     3.7507    -2.1382 H       
  43 H43            0.7719     3.7218     2.1273 H       
  44 H44            0.3063     5.1732     1.2081 H       
  45 H45           -0.6956     3.7046     1.1201 H       
  46 H46            3.2528     3.0396    -1.5870 H       
  47 H47            2.1345     5.3039     1.8502 H       
  48 H48            4.4338     6.1622     2.0382 H       
  49 H49            5.5543     3.8933    -1.4059 H       
  50 H50            7.4381     4.0134    -0.4893 H       
  51 H51            7.0112     5.3870    -1.5377 H       
  52 H52            9.0174     5.5181     0.7573 H       
  53 H53            9.7545     4.0669    -1.1566 H       
  54 H54            9.4996     5.4446    -2.2545 H       
  55 H55            8.3679     7.4120    -1.3452 H       
  56 H56           11.0908     6.6813    -0.8960 H       
  57 H57           -0.4583    -2.4149    -1.1452 H       
  58 H58            1.0736    -2.3861    -2.0513 H       
  59 H59            0.3230    -4.5021     0.0146 H       
  60 H60           -1.0981    -4.5535    -2.0566 H       
  61 H61            0.3861    -4.6836    -3.0304 H       
  62 H62            2.5179    -4.3515    -1.8799 H       
  63 H63            0.9007    -6.7018    -1.7780 H       
  64 H64           -1.8314    -6.7265    -2.8840 H       
  65 H65           -0.3471    -6.8566    -3.8578 H       
  66 H66           12.1244     4.0494    -1.7287 H       
  67 H67           11.8696     5.4271    -2.8266 H       
  68 H68            0.2863    -8.8946    -2.5321 H       
  69 H69           -1.0114    -8.3484    -0.4910 H       
  70 H70           -2.5279    -8.5552    -1.3997 H       
  71 H71           -1.4589    -9.9512    -1.1226 H       
  72 H72           13.4326     6.7868    -1.4053 H       
  73 H73           14.8394     5.5872     0.2472 H       
  74 H74           13.1194     5.5136     0.6994 H       
  75 H75           13.9067     4.0985    -0.0395 H       
  76 H76           14.2444     5.6035    -3.4275 H       
  77 H77           15.4964     5.6397    -2.1627 H       
  78 H78           14.5637     4.1510    -2.4494 H       
  79 H79           -0.8968    -9.0966    -4.7019 H       
  80 H80           -1.3920   -10.3881    -3.5817 H       
  81 H81           -2.4610    -8.9922    -3.8588 H       
@<TRIPOS>BOND
   1    1    2 ar
   2    1    6 ar
   3    1   36 1
   4    2    3 ar
   5    2   37 1
   6    3    4 ar
   7    3   22 1
   8    4    5 ar
   9    4   38 1
  10    5    6 ar
  11    5   39 1
  12    6    7 1
  13    7    8 1
  14    7    9 1
  15    7   10 1
  16    8   12 ar
  17    8   11 ar
  18    9   40 1
  19    9   41 1
  20    9   42 1
  21   10   43 1
  22   10   44 1
  23   10   45 1
  24   11   15 ar
  25   11   46 1
  26   12   13 ar
  27   12   47 1
  28   13   14 ar
  29   13   48 1
  30   14   15 ar
  31   14   16 1
  32   15   49 1
  33   16   17 1
  34   17   18 1
  35   17   50 1
  36   17   51 1
  37   18   19 1
  38   18   20 1
  39   18   52 1
  40   19   21 1
  41   19   53 1
  42   19   54 1
  43   20   55 1
  44   21   29 1
  45   21   56 1
  46   22   23 1
  47   23   24 1
  48   23   57 1
  49   23   58 1
  50   24   25 1
  51   24   26 1
  52   24   59 1
  53   25   27 1
  54   25   60 1
  55   25   61 1
  56   26   62 1
  57   27   28 1
  58   27   63 1
  59   28   30 1
  60   28   64 1
  61   28   65 1
  62   29   32 1
  63   29   66 1
  64   29   67 1
  65   30   35 1
  66   30   31 1
  67   30   68 1
  68   31   69 1
  69   31   70 1
  70   31   71 1
  71   32   33 1
  72   32   34 1
  73   32   72 1
  74   33   73 1
  75   33   74 1
  76   33   75 1
  77   34   76 1
  78   34   77 1
  79   34   78 1
  80   35   79 1
  81   35   80 1
  82   35   81 1

#	End of record

