#	Name: ASD03731754
#	Creating user name:	WinNT
#	Creation time:	15. 06. 2019 20:46

#	Modifying user name:	WinNT
#	Modification time:	15. 06. 2019 20:46

#	Program:	/corina/corina34_cracker 3.40 0067  02.08.2006

@<TRIPOS>MOLECULE
ASD03731754
  33   34    0    0    0
SMALL
NO_CHARGES


@<TRIPOS>ATOM
   1 C1             0.3760     1.0939     1.9786 C.2     
   2 C2             0.2922    -0.2824     1.4518 C.ar    
   3 C3             1.3748    -0.8358     0.7625 C.ar    
   4 C4             1.2927    -2.1210     0.2729 C.ar    
   5 C5             0.1338    -2.8669     0.4638 C.ar    
   6 C6            -0.9442    -2.3193     1.1487 C.ar    
   7 C7            -0.8673    -1.0372     1.6461 C.ar    
   8 O8             1.3877     1.7476     1.8130 O.2     
   9 N9            -0.6710     1.6279     2.6382 N.am    
  10 S10           -0.5770     3.1720     3.2291 S.o2    
  11 O11           -1.8280     3.3784     3.8708 O.2     
  12 O12            0.6370     3.1914     3.9673 O.2     
  13 C13           -0.4401     4.2147     1.7511 C.3     
  14 O14            0.0558    -4.1323    -0.0206 O.3     
  15 C15           -1.1302    -4.7864     0.0914 C.ar    
  16 C16           -2.0844    -4.6708    -0.9092 C.ar    
  17 C17           -3.2891    -5.3368    -0.7937 C.ar    
  18 C18           -3.5447    -6.1184     0.3191 C.ar    
  19 C19           -2.5944    -6.2350     1.3182 C.ar    
  20 C20           -1.3862    -5.5752     1.2038 C.ar    
  21 Cl21          -5.0599    -6.9535     0.4624 Cl      
  22 Cl22           2.6364    -2.8101    -0.5835 Cl      
  23 H23            2.2742    -0.2568     0.6137 H       
  24 H24           -1.8422    -2.9013     1.2945 H       
  25 H25           -1.7042    -0.6141     2.1818 H       
  26 H26           -1.4796     1.1077     2.7667 H       
  27 H27           -1.3195     4.0722     1.1231 H       
  28 H28           -0.3724     5.2609     2.0495 H       
  29 H29            0.4540     3.9377     1.1926 H       
  30 H30           -1.8856    -4.0603    -1.7777 H       
  31 H31           -4.0321    -5.2472    -1.5724 H       
  32 H32           -2.7958    -6.8455     2.1860 H       
  33 H33           -0.6431    -5.6697     1.9818 H       
@<TRIPOS>BOND
   1    1    2 1
   2    1    8 2
   3    1    9 am
   4    2    3 ar
   5    2    7 ar
   6    3    4 ar
   7    3   23 1
   8    4    5 ar
   9    4   22 1
  10    5    6 ar
  11    5   14 1
  12    6    7 ar
  13    6   24 1
  14    7   25 1
  15    9   10 am
  16    9   26 1
  17   10   11 2
  18   10   12 2
  19   10   13 1
  20   13   27 1
  21   13   28 1
  22   13   29 1
  23   14   15 1
  24   15   16 ar
  25   15   20 ar
  26   16   17 ar
  27   16   30 1
  28   17   18 ar
  29   17   31 1
  30   18   19 ar
  31   18   21 1
  32   19   20 ar
  33   19   32 1
  34   20   33 1

#	End of record

