#	Name: ASD05313050
#	Creating user name:	WinNT
#	Creation time:	15. 06. 2019 20:58

#	Modifying user name:	WinNT
#	Modification time:	15. 06. 2019 20:58

#	Program:	/corina/corina34_cracker 3.40 0067  02.08.2006

@<TRIPOS>MOLECULE
ASD05313050
  37   40    0    0    0
SMALL
NO_CHARGES


@<TRIPOS>ATOM
   1 C1            -0.0723     0.8200     1.0218 C.2     
   2 C2             0.1133    -0.6168     0.5955 C.3     
   3 N3             0.9291     1.7321     1.0480 N.pl3   
   4 N4             1.4566    -0.7175    -0.0055 N.am    
   5 C5             2.5708    -0.0354     0.6704 C.3     
   6 C6             2.3160     1.4766     0.6626 C.3     
   7 N7            -0.9050     2.6437     1.7046 N.2     
   8 N8            -1.1582     1.4116     1.4238 N.2     
   9 C9             0.3711     2.8926     1.4916 C.2     
  10 C10            1.0646     4.1829     1.6974 C.ar    
  11 N11            0.3738     5.2270     2.1378 N.ar    
  12 C12            0.9635     6.3936     2.3320 C.ar    
  13 C13            2.3200     6.5184     2.0699 C.ar    
  14 C14            3.0123     5.4074     1.6107 C.ar    
  15 N15            2.3643     4.2680     1.4424 N.ar    
  16 C16            1.6574    -1.4149    -1.1412 C.2     
  17 O17            2.7495    -1.4053    -1.6754 O.2     
  18 C18            0.5511    -2.1905    -1.7366 C.ar    
  19 C19            0.3200    -2.1389    -3.1145 C.ar    
  20 C20           -0.7153    -2.8666    -3.6648 C.ar    
  21 C21           -1.5245    -3.6469    -2.8540 C.ar    
  22 C22           -1.2994    -3.7009    -1.4867 C.ar    
  23 C23           -0.2649    -2.9830    -0.9264 C.ar    
  24 F24           -2.5368    -4.3574    -3.3978 F       
  25 Cl25           1.3327    -1.1614    -4.1307 Cl      
  26 H26            0.0433    -1.2740     1.4622 H       
  27 H27           -0.6445    -0.8874    -0.1399 H       
  28 H28            2.6425    -0.3872     1.6995 H       
  29 H29            3.5016    -0.2505     0.1455 H       
  30 H30            2.4946     1.8707    -0.3378 H       
  31 H31            2.9864     1.9627     1.3715 H       
  32 H32            0.3960     7.2398     2.6902 H       
  33 H33            2.8263     7.4605     2.2198 H       
  34 H34            4.0690     5.4717     1.3973 H       
  35 H35           -0.8956    -2.8277    -4.7289 H       
  36 H36           -1.9338    -4.3101    -0.8599 H       
  37 H37           -0.0881    -3.0300     0.1380 H       
@<TRIPOS>BOND
   1    1    2 1
   2    1    3 1
   3    1    8 2
   4    2    4 1
   5    2   26 1
   6    2   27 1
   7    3    6 1
   8    3    9 1
   9    4    5 1
  10    4   16 am
  11    5    6 1
  12    5   28 1
  13    5   29 1
  14    6   30 1
  15    6   31 1
  16    7    8 1
  17    7    9 2
  18    9   10 1
  19   10   11 ar
  20   10   15 ar
  21   11   12 ar
  22   12   13 ar
  23   12   32 1
  24   13   14 ar
  25   13   33 1
  26   14   15 ar
  27   14   34 1
  28   16   17 2
  29   16   18 1
  30   18   19 ar
  31   18   23 ar
  32   19   20 ar
  33   19   25 1
  34   20   21 ar
  35   20   35 1
  36   21   22 ar
  37   21   24 1
  38   22   23 ar
  39   22   36 1
  40   23   37 1

#	End of record

