#	Name: ASD01813712
#	Creating user name:	WinNT
#	Creation time:	15. 06. 2019 19:30

#	Modifying user name:	WinNT
#	Modification time:	15. 06. 2019 19:30

#	Program:	/corina/corina34_cracker 3.40 0067  02.08.2006

@<TRIPOS>MOLECULE
ASD01813712
  32   34    0    0    0
SMALL
NO_CHARGES


@<TRIPOS>ATOM
   1 C1            -0.0168     1.3835    -0.0513 C.ar    
   2 C2             0.0020    -0.0038    -0.0583 C.ar    
   3 C3             1.1977    -0.6920    -0.0533 C.ar    
   4 C4             2.4035     0.0084    -0.0411 C.ar    
   5 C5             2.3796     1.4130    -0.0341 C.ar    
   6 C6             1.1627     2.0947    -0.0392 C.ar    
   7 N7             3.6056    -0.6668    -0.0350 N.pl3   
   8 C8             4.7891    -0.0410    -0.0219 C.2     
   9 C9             4.8932     1.3356    -0.0136 C.2     
  10 C10            3.6619     2.1417    -0.0212 C.2     
  11 O11            3.7002     3.3596    -0.0146 O.2     
  12 C12            6.2115     1.9851     0.0017 C.2     
  13 O13            6.3001     3.3302     0.0098 O.3     
  14 O14            7.2220     1.3094     0.0071 O.2     
  15 C15            3.5871    -2.1316    -0.0427 C.3     
  16 C16            3.4445    -2.6248    -1.4595 C.ar    
  17 N17            2.2452    -2.7328    -2.0037 N.ar    
  18 C18            2.1195    -3.1647    -3.2459 C.ar    
  19 C19            3.2454    -3.5042    -3.9780 C.ar    
  20 N20            4.4453    -3.3958    -3.4328 N.ar    
  21 C21            4.5698    -2.9587    -2.1919 C.ar    
  22 F22            1.2003    -2.0429    -0.0598 F       
  23 Cl23           3.0813    -4.0724    -5.6102 Cl      
  24 H24           -0.9607     1.9082    -0.0598 H       
  25 H25           -0.9292    -0.5507    -0.0674 H       
  26 H26            1.1454     3.1746    -0.0341 H       
  27 H27            5.6925    -0.6328    -0.0174 H       
  28 H28            7.1887     3.7116     0.0198 H       
  29 H29            4.5175    -2.5090     0.3815 H       
  30 H30            2.7459    -2.4875     0.5522 H       
  31 H31            1.1392    -3.2533    -3.6904 H       
  32 H32            5.5497    -2.8698    -1.7466 H       
@<TRIPOS>BOND
   1    1    2 ar
   2    1    6 ar
   3    1   24 1
   4    2    3 ar
   5    2   25 1
   6    3   22 1
   7    3    4 ar
   8    4    5 ar
   9    4    7 1
  10    5    6 ar
  11    5   10 1
  12    6   26 1
  13    7    8 1
  14    7   15 1
  15    8    9 2
  16    8   27 1
  17    9   10 1
  18    9   12 1
  19   10   11 2
  20   12   13 1
  21   12   14 2
  22   13   28 1
  23   15   16 1
  24   15   29 1
  25   15   30 1
  26   16   17 ar
  27   16   21 ar
  28   17   18 ar
  29   18   19 ar
  30   18   31 1
  31   19   20 ar
  32   19   23 1
  33   20   21 ar
  34   21   32 1

#	End of record

