#	Name: ASD00192048
#	Creating user name:	WinNT
#	Creation time:	15. 06. 2019 18:33

#	Modifying user name:	WinNT
#	Modification time:	15. 06. 2019 18:33

#	Program:	/corina/corina34_cracker 3.40 0067  02.08.2006

@<TRIPOS>MOLECULE
ASD00192048
  20   22    0    0    0
SMALL
NO_CHARGES


@<TRIPOS>ATOM
   1 N1            -0.0157     1.3051     0.0092 N.ar    
   2 C2             0.0021    -0.0041     0.0020 C.ar    
   3 C3             1.2139    -0.7190    -0.0129 C.ar    
   4 C4             2.4222    -0.0119    -0.0207 C.ar    
   5 C5             2.3735     1.3990    -0.0131 C.ar    
   6 C6             3.5399     2.1736    -0.0197 C.ar    
   7 C7             3.4483     3.5342    -0.0115 C.ar    
   8 C8             2.2076     4.1632     0.0037 C.ar    
   9 C9             1.0537     3.4384     0.0104 C.ar    
  10 C10            1.1089     2.0360     0.0024 C.ar    
  11 C11            2.8243    -2.1743    -0.0347 C.2     
  12 N12            1.5296    -2.0373    -0.0221 N.2     
  13 N13            3.4188    -0.9503    -0.0343 N.pl3   
  14 Cl14          -1.4995    -0.8752     0.0117 Cl      
  15 H15            4.5083     1.6955    -0.0308 H       
  16 H16            4.3491     4.1300    -0.0166 H       
  17 H17            2.1582     5.2421     0.0107 H       
  18 H18            0.0985     3.9422     0.0226 H       
  19 H19            3.3484    -3.1186    -0.0434 H       
  20 H20            4.3728    -0.7750    -0.0427 H       
@<TRIPOS>BOND
   1    1    2 ar
   2    1   10 ar
   3    2    3 ar
   4    2   14 1
   5    3    4 ar
   6    3   12 1
   7    4    5 ar
   8    4   13 1
   9    5    6 ar
  10    5   10 ar
  11    6    7 ar
  12    6   15 1
  13    7    8 ar
  14    7   16 1
  15    8    9 ar
  16    8   17 1
  17    9   10 ar
  18    9   18 1
  19   11   12 2
  20   11   13 1
  21   11   19 1
  22   13   20 1

#	End of record

