#	Name: ASD01530071
#	Creating user name:	WinNT
#	Creation time:	15. 06. 2019 19:22

#	Modifying user name:	WinNT
#	Modification time:	15. 06. 2019 19:22

#	Program:	/corina/corina34_cracker 3.40 0067  02.08.2006

@<TRIPOS>MOLECULE
ASD01530071
  57   59    0    0    0
SMALL
NO_CHARGES


@<TRIPOS>ATOM
   1 C1             0.1772     0.8923     0.0286 C.ar    
   2 C2             0.4010    -0.4847     0.1051 C.ar    
   3 C3             1.7087    -0.9722     0.1461 C.ar    
   4 C4             2.7719    -0.0928     0.1109 C.ar    
   5 C5             1.2466     1.7583    -0.0057 C.ar    
   6 C6             1.3399     3.2645    -0.0850 C.3     
   7 C7             2.5441     1.2672     0.0358 C.ar    
   8 C8             3.4747     2.4570    -0.0175 C.3     
   9 O9             2.6751     3.6008     0.3343 O.3     
  10 C10            4.6138     2.2807     0.9886 C.3     
  11 C11            5.5454     3.4926     0.9217 C.3     
  12 C12            6.6846     3.3163     1.9277 C.3     
  13 N13            7.5790     4.4798     1.8635 N.3     
  14 C14            8.5451     4.4629     2.9700 C.3     
  15 C15            8.2653     4.5453     0.5664 C.3     
  16 C16            4.0302     2.6198    -1.4088 C.ar    
  17 C17            3.8719     3.8180    -2.0800 C.ar    
  18 C18            4.3813     3.9686    -3.3558 C.ar    
  19 C19            5.0505     2.9188    -3.9618 C.ar    
  20 C20            5.2084     1.7192    -3.2887 C.ar    
  21 C21            4.7027     1.5727    -2.0109 C.ar    
  22 C22           -0.7061    -1.3922     0.1417 C.1     
  23 N23           -1.5844    -2.1121     0.1708 N.1     
  24 F24            5.5485     3.0647    -5.2091 F       
  25 C25            9.2884     5.7993     3.0185 C.3     
  26 C26           10.2946     5.7817     4.1710 C.3     
  27 C27           11.0379     7.1181     4.2195 C.3     
  28 C28           12.0442     7.1005     5.3719 C.3     
  29 H29           -0.8317     1.2759    -0.0079 H       
  30 H30            1.8879    -2.0356     0.2055 H       
  31 H31            3.7838    -0.4690     0.1426 H       
  32 H32            1.1727     3.5977    -1.1092 H       
  33 H33            0.6101     3.7217     0.5832 H       
  34 H34            4.2009     2.1949     1.9937 H       
  35 H35            5.1746     1.3776     0.7479 H       
  36 H36            5.9583     3.5784    -0.0834 H       
  37 H37            4.9846     4.3957     1.1624 H       
  38 H38            6.2716     3.2305     2.9328 H       
  39 H39            7.2454     2.4132     1.6870 H       
  40 H40            8.0173     4.3063     3.9108 H       
  41 H41            9.2601     3.6548     2.8157 H       
  42 H42            7.5272     4.6274    -0.2315 H       
  43 H43            8.9210     5.4158     0.5457 H       
  44 H44            8.8570     3.6413     0.4223 H       
  45 H45            3.3496     4.6366    -1.6072 H       
  46 H46            4.2572     4.9046    -3.8800 H       
  47 H47            5.7302     0.8997    -3.7604 H       
  48 H48            4.8294     0.6384    -1.4841 H       
  49 H49            9.8162     5.9559     2.0778 H       
  50 H50            8.5734     6.6074     3.1729 H       
  51 H51            9.7669     5.6251     5.1118 H       
  52 H52           11.0097     4.9736     4.0167 H       
  53 H53           11.5657     7.2747     3.2787 H       
  54 H54           10.3229     7.9262     4.3738 H       
  55 H55           12.5737     8.0526     5.4065 H       
  56 H56           11.5164     6.9439     6.3127 H       
  57 H57           12.7592     6.2924     5.2176 H       
@<TRIPOS>BOND
   1    1    2 ar
   2    1    5 ar
   3    1   29 1
   4    2    3 ar
   5    2   22 1
   6    3    4 ar
   7    3   30 1
   8    4    7 ar
   9    4   31 1
  10    5    7 ar
  11    5    6 1
  12    6    9 1
  13    6   32 1
  14    6   33 1
  15    7    8 1
  16    8    9 1
  17    8   10 1
  18    8   16 1
  19   10   11 1
  20   10   34 1
  21   10   35 1
  22   11   12 1
  23   11   36 1
  24   11   37 1
  25   12   13 1
  26   12   38 1
  27   12   39 1
  28   13   14 1
  29   13   15 1
  30   14   25 1
  31   14   40 1
  32   14   41 1
  33   15   42 1
  34   15   43 1
  35   15   44 1
  36   16   17 ar
  37   16   21 ar
  38   17   18 ar
  39   17   45 1
  40   18   19 ar
  41   18   46 1
  42   19   20 ar
  43   19   24 1
  44   20   21 ar
  45   20   47 1
  46   21   48 1
  47   22   23 3
  48   25   26 1
  49   25   49 1
  50   25   50 1
  51   26   27 1
  52   26   51 1
  53   26   52 1
  54   27   28 1
  55   27   53 1
  56   27   54 1
  57   28   55 1
  58   28   56 1
  59   28   57 1

#	End of record

