#	Name: ASD01148635
#	Creating user name:	WinNT
#	Creation time:	15. 06. 2019 19:02

#	Modifying user name:	WinNT
#	Modification time:	15. 06. 2019 19:02

#	Program:	/corina/corina34_cracker 3.40 0067  02.08.2006

@<TRIPOS>MOLECULE
ASD01148635
  57   61    0    0    0
SMALL
NO_CHARGES


@<TRIPOS>ATOM
   1 C1            -0.0169     1.4355    -0.0252 C.ar    
   2 C2             0.0192     0.0537    -0.0358 C.ar    
   3 C3            -1.1593    -0.6687    -0.0207 C.ar    
   4 C4            -2.3739    -0.0092     0.0055 C.ar    
   5 C5            -2.4101     1.3726     0.0170 C.ar    
   6 C6            -1.2315     2.0949     0.0064 C.ar    
   7 C7            -3.7342     2.0916     0.0451 C.3     
   8 O8            -4.7238     1.3227     0.7585 O.3     
   9 C9            -3.6498     3.3741     0.9066 C.3     
  10 C10           -4.1236     2.8912     2.2643 C.2     
  11 N11           -4.7055     1.7481     2.1068 N.2     
  12 C12           -3.9500     3.6026     3.5423 C.ar    
  13 C13           -4.4576     3.0207     4.7825 C.ar    
  14 C14           -3.2979     4.8274     3.5770 C.ar    
  15 C15           -3.1209     5.5173     4.7631 C.ar    
  16 C16           -3.5877     5.0143     5.9699 C.ar    
  17 C17           -4.2767     3.7262     5.9956 C.ar    
  18 C18           -3.3845     5.7718     7.2176 C.2     
  19 O19           -3.8862     5.3816     8.2543 O.2     
  20 N20           -2.6426     6.8969     7.2096 N.am    
  21 C21           -4.7638     3.1801     7.1897 C.ar    
  22 C22           -5.1162     1.7845     4.7955 C.ar    
  23 C23           -4.2092     2.4140    -1.3731 C.3     
  24 F24           -4.3419     1.2270    -2.1016 F       
  25 F25           -5.4458     3.0655    -1.3139 F       
  26 F26           -3.2742     3.2442    -2.0006 F       
  27 C27           -2.4511     7.6104     8.3848 C.ar    
  28 N28           -1.7193     8.7138     8.3589 N.ar    
  29 N29           -3.0092     7.1742     9.5038 N.ar    
  30 C30           -2.8468     7.8302    10.6408 C.ar    
  31 C31           -2.0820     8.9863    10.6510 C.ar    
  32 C32           -1.5172     9.4172     9.4607 C.ar    
  33 C33           -5.5737     1.2779     5.9756 C.ar    
  34 C34           -5.4006     1.9747     7.1685 C.ar    
  35 C35            1.2678     2.2230    -0.0417 C.3     
  36 F36            2.3544     1.3421    -0.0669 F       
  37 F37            1.3011     3.0372    -1.1788 F       
  38 F38            1.3406     3.0207     1.1053 F       
  39 C39           -1.1199    -2.1751    -0.0333 C.3     
  40 F40            0.2106    -2.6066    -0.0603 F       
  41 F41           -1.7468    -2.6676     1.1163 F       
  42 F42           -1.7871    -2.6496    -1.1678 F       
  43 H43            0.9681    -0.4616    -0.0563 H       
  44 H44           -3.2947    -0.5735     0.0165 H       
  45 H45           -1.2597     3.1745     0.0154 H       
  46 H46           -2.6232     3.7365     0.9615 H       
  47 H47           -4.3135     4.1461     0.5173 H       
  48 H48           -2.9202     5.2510     2.6581 H       
  49 H49           -2.6080     6.4677     4.7500 H       
  50 H50           -2.2424     7.2081     6.3826 H       
  51 H51           -4.6355     3.7104     8.1218 H       
  52 H52           -5.2609     1.2363     3.8763 H       
  53 H53           -3.3047     7.4697    11.5501 H       
  54 H54           -1.9330     9.5414    11.5654 H       
  55 H55           -0.9159    10.3139     9.4342 H       
  56 H56           -6.0813     0.3247     5.9846 H       
  57 H57           -5.7755     1.5543     8.0899 H       
@<TRIPOS>BOND
   1    1    2 ar
   2    1   35 1
   3    1    6 ar
   4    2    3 ar
   5    2   43 1
   6    3    4 ar
   7    3   39 1
   8    4    5 ar
   9    4   44 1
  10    5    6 ar
  11    5    7 1
  12    6   45 1
  13    7    8 1
  14    7    9 1
  15    7   23 1
  16    8   11 1
  17    9   10 1
  18    9   46 1
  19    9   47 1
  20   10   11 2
  21   10   12 1
  22   12   13 ar
  23   12   14 ar
  24   13   22 ar
  25   13   17 ar
  26   14   15 ar
  27   14   48 1
  28   15   16 ar
  29   15   49 1
  30   16   17 ar
  31   16   18 1
  32   17   21 ar
  33   18   19 2
  34   18   20 am
  35   20   27 1
  36   20   50 1
  37   21   34 ar
  38   21   51 1
  39   22   33 ar
  40   22   52 1
  41   23   24 1
  42   23   25 1
  43   23   26 1
  44   27   28 ar
  45   27   29 ar
  46   28   32 ar
  47   29   30 ar
  48   30   31 ar
  49   30   53 1
  50   31   32 ar
  51   31   54 1
  52   32   55 1
  53   33   34 ar
  54   33   56 1
  55   34   57 1
  56   35   36 1
  57   35   37 1
  58   35   38 1
  59   39   40 1
  60   39   41 1
  61   39   42 1

#	End of record

