#	Name: ASD03430892
#	Creating user name:	WinNT
#	Creation time:	15. 06. 2019 20:41

#	Modifying user name:	WinNT
#	Modification time:	15. 06. 2019 20:41

#	Program:	/corina/corina34_cracker 3.40 0067  02.08.2006

@<TRIPOS>MOLECULE
ASD03430892
  50   56    0    0    0
SMALL
NO_CHARGES


@<TRIPOS>ATOM
   1 O1            -0.5022     1.2514    -0.0615 O.3     
   2 C2            -0.5124    -0.1853    -0.1637 C.3     
   3 C3             0.9154    -0.4963    -0.6325 C.3     
   4 C4             1.7016     0.6971    -0.1593 C.ar    
   5 C5             0.7722     1.6801     0.1666 C.ar    
   6 C6             1.2262     2.9022     0.6524 C.ar    
   7 C7             2.5824     3.1407     0.7986 C.ar    
   8 C8             3.5015     2.1534     0.4625 C.ar    
   9 C9             3.0528     0.9325    -0.0170 C.ar    
  10 N10            1.7510    -2.5730    -1.0918 N.am    
  11 C11            1.4277    -1.7819    -0.0494 C.2     
  12 C12            0.9921    -0.6758    -2.1193 C.ar    
  13 C13            0.6701     0.1320    -3.2010 C.ar    
  14 C14            0.8657    -0.3381    -4.4999 C.ar    
  15 C15            1.3781    -1.6043    -4.6990 C.ar    
  16 C16            1.6972    -2.4075    -3.6227 C.ar    
  17 C17            1.5066    -1.9523    -2.3196 C.ar    
  18 O18            1.5303    -2.0547     1.1279 O.2     
  19 O19            4.8390     2.3684     0.6000 O.3     
  20 O20            3.0010     4.3485     1.2675 O.3     
  21 C21            5.2613     3.7306     0.7279 C.3     
  22 C22            4.3472     4.4216     1.7489 C.3     
  23 C23            0.1191     1.4911    -2.9767 C.ar    
  24 C24            0.8639     2.4480    -2.2694 C.ar    
  25 N25            0.4031     3.6545    -2.0564 N.ar    
  26 C26           -0.7989     4.0357    -2.5015 C.ar    
  27 C27           -1.6113     3.1262    -3.2245 C.ar    
  28 C28           -1.1332     1.8273    -3.4692 C.ar    
  29 C29           -1.2772     5.3359    -2.2625 C.ar    
  30 C30           -2.5040     5.7009    -2.7250 C.ar    
  31 C31           -3.3009     4.8053    -3.4355 C.ar    
  32 C32           -2.8730     3.5376    -3.6866 C.ar    
  33 H33           -0.7089    -0.6408     0.8068 H       
  34 H34           -1.2427    -0.5155    -0.9024 H       
  35 H35            0.5154     3.6710     0.9173 H       
  36 H36            3.7637     0.1631    -0.2797 H       
  37 H37            2.1114    -3.4689    -1.0003 H       
  38 H38            0.6176     0.2859    -5.3457 H       
  39 H39            1.5301    -1.9693    -5.7040 H       
  40 H40            2.0973    -3.3963    -3.7918 H       
  41 H41            6.2936     3.7645     1.0762 H       
  42 H42            5.1813     4.2326    -0.2364 H       
  43 H43            4.6420     5.4652     1.8590 H       
  44 H44            4.4215     3.9147     2.7110 H       
  45 H45            1.8401     2.1823    -1.8916 H       
  46 H46           -1.7266     1.1100    -4.0167 H       
  47 H47           -0.6730     6.0428    -1.7132 H       
  48 H48           -2.8661     6.7010    -2.5379 H       
  49 H49           -4.2705     5.1209    -3.7913 H       
  50 H50           -3.4991     2.8525    -4.2388 H       
@<TRIPOS>BOND
   1    1    2 1
   2    1    5 1
   3    2    3 1
   4    2   33 1
   5    2   34 1
   6    3    4 1
   7    3   11 1
   8    3   12 1
   9    4    5 ar
  10    4    9 ar
  11    5    6 ar
  12    6    7 ar
  13    6   35 1
  14    7    8 ar
  15    7   20 1
  16    8    9 ar
  17    8   19 1
  18    9   36 1
  19   10   11 am
  20   10   17 1
  21   10   37 1
  22   11   18 2
  23   12   13 ar
  24   12   17 ar
  25   13   14 ar
  26   13   23 1
  27   14   15 ar
  28   14   38 1
  29   15   16 ar
  30   15   39 1
  31   16   17 ar
  32   16   40 1
  33   19   21 1
  34   20   22 1
  35   21   22 1
  36   21   41 1
  37   21   42 1
  38   22   43 1
  39   22   44 1
  40   23   24 ar
  41   23   28 ar
  42   24   25 ar
  43   24   45 1
  44   25   26 ar
  45   26   27 ar
  46   26   29 ar
  47   27   28 ar
  48   27   32 ar
  49   28   46 1
  50   29   30 ar
  51   29   47 1
  52   30   31 ar
  53   30   48 1
  54   31   32 ar
  55   31   49 1
  56   32   50 1

#	End of record

