#	Name: ASD01917948
#	Creating user name:	WinNT
#	Creation time:	15. 06. 2019 20:10

#	Modifying user name:	WinNT
#	Modification time:	15. 06. 2019 20:10

#	Program:	/corina/corina34_cracker 3.40 0067  02.08.2006

@<TRIPOS>MOLECULE
ASD01917948
  36   39    0    0    0
SMALL
NO_CHARGES


@<TRIPOS>ATOM
   1 N1             4.7271    -0.5764    -2.1717 N.ar    
   2 C2             5.2113     0.1533    -3.1566 C.ar    
   3 N3             5.1526     1.4698    -3.1419 N.ar    
   4 C4             4.5992     2.1134    -2.1274 C.ar    
   5 C5             4.0755     1.3801    -1.0675 C.ar    
   6 C6             4.1581    -0.0076    -1.1216 C.ar    
   7 O7             3.4991     2.0032    -0.0062 O.3     
   8 C8             3.5511     3.3616     0.0422 C.2     
   9 N9             2.4082     5.4385    -0.0253 N.pl3   
  10 C10            2.4051     4.0769    -0.0678 C.2     
  11 C11            4.7886     3.9986     0.2108 C.2     
  12 C12            4.8384     5.3859     0.2599 C.2     
  13 C13            3.5840     6.1299     0.1322 C.2     
  14 C14            6.1193     6.0897     0.4362 C.2     
  15 N15            6.1475     7.4364     0.4815 N.am    
  16 C16            7.3421     8.0993     0.7536 C.ar    
  17 N17            8.4664     7.4082     0.8595 N.ar    
  18 C18            7.3438     9.4812     0.9058 C.ar    
  19 C19            8.5376    10.1272     1.1754 C.ar    
  20 C20            9.6930     9.3655     1.2839 C.ar    
  21 C21            9.6187     7.9967     1.1157 C.ar    
  22 O22            7.1521     5.4559     0.5412 O.2     
  23 C23            1.4321     6.3846    -0.1091 C.2     
  24 N24            2.0095     7.5537    -0.0129 N.2     
  25 N25            3.2802     7.4126     0.1355 N.2     
  26 H26           10.5157     7.4004     1.1951 H       
  27 H27           10.6408     9.8388     1.4937 H       
  28 H28            6.4260    10.0430     0.8144 H       
  29 H29            8.5697    11.1997     1.2983 H       
  30 H30            5.6697    -0.3419    -3.9998 H       
  31 H31            4.5549     3.1925    -2.1218 H       
  32 H32            3.7630    -0.6118    -0.3183 H       
  33 H33            1.4676     3.5552    -0.1923 H       
  34 H34            5.6938     3.4167     0.3020 H       
  35 H35            5.3360     7.9441     0.3245 H       
  36 H36            0.3753     6.2026    -0.2376 H       
@<TRIPOS>BOND
   1    1    2 ar
   2    1    6 ar
   3    2    3 ar
   4    2   30 1
   5    3    4 ar
   6    4    5 ar
   7    4   31 1
   8    5    6 ar
   9    5    7 1
  10    6   32 1
  11    7    8 1
  12    8   11 1
  13    8   10 2
  14    9   10 1
  15    9   23 1
  16    9   13 1
  17   10   33 1
  18   11   12 2
  19   11   34 1
  20   12   13 1
  21   12   14 1
  22   13   25 2
  23   14   15 am
  24   14   22 2
  25   15   16 1
  26   15   35 1
  27   16   18 ar
  28   16   17 ar
  29   17   21 ar
  30   18   19 ar
  31   18   28 1
  32   19   20 ar
  33   19   29 1
  34   20   21 ar
  35   20   27 1
  36   21   26 1
  37   23   24 2
  38   23   36 1
  39   24   25 1

#	End of record

