#	Name: ASD07930457
#	Creating user name:	WinNT
#	Creation time:	15. 06. 2019 21:12

#	Modifying user name:	WinNT
#	Modification time:	15. 06. 2019 21:12

#	Program:	/corina/corina34_cracker 3.40 0067  02.08.2006

@<TRIPOS>MOLECULE
ASD07930457
  48   50    0    0    0
SMALL
NO_CHARGES


@<TRIPOS>ATOM
   1 C1            -0.0237     1.5451    -0.0201 C.3     
   2 N2             2.1227     1.2429     2.0324 N.2     
   3 N3             2.7594     3.3813     1.3373 N.pl3   
   4 C4             3.6749     3.8760     0.3038 C.3     
   5 C5             2.9014     4.0669    -1.0081 C.3     
   6 S6             2.1158     2.4834    -1.4437 S.o2    
   7 N7             1.3510     2.0516    -0.0277 N.am    
   8 C8             2.0802     2.1958     1.1441 C.2     
   9 C9             4.8004     2.8617     0.0904 C.3     
  10 C10            4.2604     5.1945     0.7394 C.ar    
  11 C11            3.8262     5.7901     1.9070 C.ar    
  12 C12            4.3661     7.0054     2.3080 C.ar    
  13 C13            5.3416     7.6188     1.5333 C.ar    
  14 C14            5.7731     7.0195     0.3660 C.ar    
  15 C15            5.2376     5.8053    -0.0289 C.ar    
  16 N16            3.9272     7.6110     3.4907 N.am    
  17 C17            4.7929     8.3094     4.2517 C.2     
  18 O18            5.9735     8.3325     3.9637 O.2     
  19 O19            1.0602     2.6831    -2.3737 O.2     
  20 O20            3.0947     1.4730    -1.6438 O.2     
  21 F21            5.6613     5.2206    -1.1707 F       
  22 C22            4.3061     9.0481     5.4383 C.ar    
  23 N23            3.0153     9.0187     5.7474 N.ar    
  24 C24            2.5411     9.6601     6.7924 C.ar    
  25 C25            3.3807    10.3978     7.6167 C.ar    
  26 C26            4.7383    10.4545     7.3284 C.ar    
  27 C27            5.2080     9.7637     6.2243 C.ar    
  28 F28            2.8822    11.0537     8.6874 F       
  29 C29           -0.0036     0.0153    -0.0350 C.3     
  30 H30           -0.5341     1.8931     0.8779 H       
  31 H31           -0.5502     1.9102    -0.9019 H       
  32 H32            2.6376     1.3609     2.8460 H       
  33 H33            2.6345     3.8847     2.1570 H       
  34 H34            2.1368     4.8324    -0.8758 H       
  35 H35            3.5886     4.3662    -1.7996 H       
  36 H36            4.3758     1.9092    -0.2265 H       
  37 H37            5.4805     3.2299    -0.6778 H       
  38 H38            5.3468     2.7236     1.0234 H       
  39 H39            3.0670     5.3115     2.5079 H       
  40 H40            5.7625     8.5640     1.8431 H       
  41 H41            6.5319     7.4963    -0.2368 H       
  42 H42            2.9998     7.5282     3.7628 H       
  43 H43            1.4848     9.6130     7.0125 H       
  44 H44            5.4126    11.0211     7.9535 H       
  45 H45            6.2576     9.7857     5.9706 H       
  46 H46            0.5068    -0.3326    -0.9330 H       
  47 H47            0.5229    -0.3498     0.8468 H       
  48 H48           -1.0264    -0.3615    -0.0294 H       
@<TRIPOS>BOND
   1    1   29 1
   2    1    7 1
   3    1   30 1
   4    1   31 1
   5    2    8 2
   6    2   32 1
   7    3    4 1
   8    3    8 1
   9    3   33 1
  10    4    5 1
  11    4    9 1
  12    4   10 1
  13    5    6 1
  14    5   34 1
  15    5   35 1
  16    6    7 am
  17    6   19 2
  18    6   20 2
  19    7    8 1
  20    9   36 1
  21    9   37 1
  22    9   38 1
  23   10   11 ar
  24   10   15 ar
  25   11   12 ar
  26   11   39 1
  27   12   13 ar
  28   12   16 1
  29   13   14 ar
  30   13   40 1
  31   14   15 ar
  32   14   41 1
  33   15   21 1
  34   16   17 am
  35   16   42 1
  36   17   18 2
  37   17   22 1
  38   22   23 ar
  39   22   27 ar
  40   23   24 ar
  41   24   25 ar
  42   24   43 1
  43   25   26 ar
  44   25   28 1
  45   26   27 ar
  46   26   44 1
  47   27   45 1
  48   29   46 1
  49   29   47 1
  50   29   48 1

#	End of record

