#	Name: ASD03331153
#	Creating user name:	WinNT
#	Creation time:	15. 06. 2019 20:38

#	Modifying user name:	WinNT
#	Modification time:	15. 06. 2019 20:38

#	Program:	/corina/corina34_cracker 3.40 0067  02.08.2006

@<TRIPOS>MOLECULE
ASD03331153
  56   58    0    0    0
SMALL
NO_CHARGES


@<TRIPOS>ATOM
   1 C1             0.5938     1.5917     0.4659 C.ar    
   2 C2             0.4606     0.1229     0.3517 C.2     
   3 N3            -0.6294    -0.6046     0.7068 N.pl3   
   4 C4            -0.3501    -1.9157     0.4467 C.2     
   5 C5             0.9039    -1.9644    -0.0641 C.2     
   6 N6             1.3758    -0.6970    -0.1161 N.2     
   7 C7             1.6223    -3.1780    -0.4912 C.2     
   8 N8             2.8730    -3.0823    -0.9843 N.am    
   9 C9            -0.2740     2.3111     1.2880 C.ar    
  10 O10            1.0867    -4.2660    -0.3987 O.2     
  11 C11            3.5873    -4.2889    -1.4089 C.3     
  12 C12            3.2025    -4.6286    -2.8502 C.3     
  13 C13            5.0727    -4.0475    -1.3292 C.2     
  14 C14            3.4721    -3.4198    -3.7486 C.3     
  15 C15           -1.9062    -0.1539     1.2680 C.3     
  16 C16           -2.9259    -1.2887     1.1007 C.3     
  17 O17           -2.3611    -2.5206     1.5576 O.3     
  18 C18           -1.3211    -3.0369     0.7136 C.3     
  19 N19            5.9119    -5.0783    -1.1062 N.am    
  20 C20            4.0342    -5.8186    -3.3331 C.3     
  21 C21            1.7163    -4.9872    -2.9103 C.3     
  22 C22           -0.1451     3.6825     1.3909 C.ar    
  23 C23            0.8451     4.3433     0.6778 C.ar    
  24 C24            1.7081     3.6317    -0.1397 C.ar    
  25 C25            1.5914     2.2613    -0.2437 C.ar    
  26 F26            0.9677     5.6848     0.7807 F       
  27 F27           -0.9843     4.3813     2.1863 F       
  28 O28            5.5130    -2.9257    -1.4655 O.2     
  29 C29            7.3432    -4.8299    -0.9172 C.3     
  30 C30            8.0649    -6.1586    -0.6834 C.3     
  31 F31            9.4318    -5.9214    -0.5028 F       
  32 H32            3.3002    -2.2146    -1.0580 H       
  33 H33           -1.0451     1.7969     1.8424 H       
  34 H34            3.3184    -5.1190    -0.7558 H       
  35 H35            4.5309    -3.1644    -3.7058 H       
  36 H36            3.1980    -3.6619    -4.7754 H       
  37 H37            2.8796    -2.5721    -3.4046 H       
  38 H38           -1.7824     0.0770     2.3260 H       
  39 H39           -2.2505     0.7322     0.7348 H       
  40 H40           -3.8190    -1.0618     1.6830 H       
  41 H41           -3.1949    -1.3818     0.0486 H       
  42 H42           -1.7477    -3.3878    -0.2261 H       
  43 H43           -0.8095    -3.8571     1.2172 H       
  44 H44            5.5681    -5.9847    -1.0710 H       
  45 H45            3.8021    -6.6940    -2.7266 H       
  46 H46            3.7986    -6.0268    -4.3768 H       
  47 H47            5.0942    -5.5826    -3.2400 H       
  48 H48            1.1238    -4.1395    -2.5663 H       
  49 H49            1.4422    -5.2293    -3.9371 H       
  50 H50            1.5242    -5.8484    -2.2703 H       
  51 H51            2.4767     4.1506    -0.6933 H       
  52 H52            2.2651     1.7083    -0.8814 H       
  53 H53            7.7489    -4.3477    -1.8066 H       
  54 H54            7.4884    -4.1807    -0.0537 H       
  55 H55            7.6592    -6.6408     0.2060 H       
  56 H56            7.9197    -6.8078    -1.5468 H       
@<TRIPOS>BOND
   1    1    2 1
   2    1    9 ar
   3    1   25 ar
   4    2    3 1
   5    2    6 2
   6    3    4 1
   7    3   15 1
   8    4    5 2
   9    4   18 1
  10    5    6 1
  11    5    7 1
  12    7    8 am
  13    7   10 2
  14    8   11 1
  15    8   32 1
  16    9   22 ar
  17    9   33 1
  18   11   12 1
  19   11   13 1
  20   11   34 1
  21   12   14 1
  22   12   20 1
  23   12   21 1
  24   13   19 am
  25   13   28 2
  26   14   35 1
  27   14   36 1
  28   14   37 1
  29   15   16 1
  30   15   38 1
  31   15   39 1
  32   16   17 1
  33   16   40 1
  34   16   41 1
  35   17   18 1
  36   18   42 1
  37   18   43 1
  38   19   29 1
  39   19   44 1
  40   20   45 1
  41   20   46 1
  42   20   47 1
  43   21   48 1
  44   21   49 1
  45   21   50 1
  46   22   23 ar
  47   22   27 1
  48   23   24 ar
  49   23   26 1
  50   24   25 ar
  51   24   51 1
  52   25   52 1
  53   29   30 1
  54   29   53 1
  55   29   54 1
  56   30   31 1
  57   30   55 1
  58   30   56 1

#	End of record

