#	Name: ASD07030023
#	Creating user name:	WinNT
#	Creation time:	15. 06. 2019 21:08

#	Modifying user name:	WinNT
#	Modification time:	15. 06. 2019 21:08

#	Program:	/corina/corina34_cracker 3.40 0067  02.08.2006

@<TRIPOS>MOLECULE
ASD07030023
  43   44    0    0    0
SMALL
NO_CHARGES


@<TRIPOS>ATOM
   1 C1            -0.0187     1.5258     0.0104 C.3     
   2 C2             0.0021    -0.0041     0.0020 C.3     
   3 N3             1.3595     2.0342     0.0000 N.3     
   4 N4            -1.3761    -0.5125     0.0124 N.3     
   5 C5            -1.3954    -1.9814     0.0047 C.3     
   6 C6            -2.8444    -2.4725     0.0159 C.3     
   7 N7            -2.8636    -3.9413     0.0082 N.3     
   8 C8            -4.2418    -4.4498     0.0187 C.3     
   9 C9            -4.4843    -5.8452    -0.5601 C.3     
  10 C10           -4.5556    -5.6211     0.9517 C.3     
  11 C11           -5.7814    -6.0796    -1.2907 C.ar    
  12 C12           -5.7671    -6.4634    -2.6186 C.ar    
  13 C13           -6.9569    -6.6785    -3.2887 C.ar    
  14 C14           -8.1609    -6.5101    -2.6308 C.ar    
  15 C15           -8.1752    -6.1272    -1.3027 C.ar    
  16 C16           -6.9853    -5.9164    -0.6313 C.ar    
  17 C17            2.0341     1.7008    -1.2616 C.3     
  18 C18            1.3882     3.4823     0.2457 C.3     
  19 H19           -0.5459     1.8868    -0.8726 H       
  20 H20           -0.5289     1.8773     0.9072 H       
  21 H21            0.5123    -0.3556    -0.8948 H       
  22 H22            0.5293    -0.3651     0.8851 H       
  23 H23           -1.8899    -0.1483     0.8007 H       
  24 H24           -0.8949    -2.3466    -0.8920 H       
  25 H25           -0.8779    -2.3562     0.8878 H       
  26 H26           -3.3449    -2.1073     0.9127 H       
  27 H27           -3.3618    -2.0977    -0.8671 H       
  28 H28           -2.3498    -4.3056    -0.7800 H       
  29 H29           -5.0203    -3.7014    -0.1290 H       
  30 H30           -3.6213    -6.3859    -0.9486 H       
  31 H31           -3.7395    -6.0143     1.5578 H       
  32 H32           -5.5406    -5.6432     1.4179 H       
  33 H33           -4.8264    -6.5950    -3.1326 H       
  34 H34           -6.9457    -6.9776    -4.3264 H       
  35 H35           -9.0905    -6.6774    -3.1546 H       
  36 H36           -9.1159    -5.9954    -0.7888 H       
  37 H37           -6.9964    -5.6208     0.4074 H       
  38 H38            1.4903     2.1480    -2.0937 H       
  39 H39            3.0525     2.0889    -1.2427 H       
  40 H40            2.0601     0.6181    -1.3846 H       
  41 H41            0.9447     3.6946     1.2184 H       
  42 H42            2.4203     3.8326     0.2326 H       
  43 H43            0.8210     3.9940    -0.5318 H       
@<TRIPOS>BOND
   1    1    2 1
   2    1    3 1
   3    1   19 1
   4    1   20 1
   5    2    4 1
   6    2   21 1
   7    2   22 1
   8    3   17 1
   9    3   18 1
  10    4    5 1
  11    4   23 1
  12    5    6 1
  13    5   24 1
  14    5   25 1
  15    6    7 1
  16    6   26 1
  17    6   27 1
  18    7    8 1
  19    7   28 1
  20    8    9 1
  21    8   10 1
  22    8   29 1
  23    9   10 1
  24    9   11 1
  25    9   30 1
  26   10   31 1
  27   10   32 1
  28   11   12 ar
  29   11   16 ar
  30   12   13 ar
  31   12   33 1
  32   13   14 ar
  33   13   34 1
  34   14   15 ar
  35   14   35 1
  36   15   16 ar
  37   15   36 1
  38   16   37 1
  39   17   38 1
  40   17   39 1
  41   17   40 1
  42   18   41 1
  43   18   42 1
  44   18   43 1

#	End of record

