#	Name: ASD02748001
#	Creating user name:	WinNT
#	Creation time:	15. 06. 2019 20:26

#	Modifying user name:	WinNT
#	Modification time:	15. 06. 2019 20:26

#	Program:	/corina/corina34_cracker 3.40 0067  02.08.2006

@<TRIPOS>MOLECULE
ASD02748001
  70   76    0    0    0
SMALL
NO_CHARGES


@<TRIPOS>ATOM
   1 O1            -0.0155     1.9500    -0.2409 O.3     
   2 P2            -0.2688     0.2510    -0.2270 P.3     
   3 O3            -0.9714     0.2403    -1.7886 O.3     
   4 C4            -1.4023     1.5036    -2.2896 C.3     
   5 C5            -2.7297     1.9203    -1.6369 C.3     
   6 C6            -2.6437     3.3748    -1.1716 C.3     
   7 O7            -2.0066     3.4302     0.1070 O.3     
   8 P8            -1.5671     5.0196     0.5983 P.3     
   9 O9             0.0949     4.5955     0.6235 O.3     
  10 C10            0.5293     3.8964     1.7903 C.3     
  11 C11            1.5377     2.7862     1.4109 C.3     
  12 C12            1.3428     2.3437    -0.0372 C.3     
  13 O13           -3.7750     1.7714    -2.5997 O.3     
  14 C14           -1.7232     1.3896    -3.7974 C.3     
  15 C15           -3.2552     1.2661    -3.8297 C.3     
  16 O16            2.8080     3.4409     1.5797 O.3     
  17 C17            1.3837     4.7960     2.6670 C.2     
  18 C18            2.6480     4.4592     2.4595 C.2     
  19 O19           -3.2322     5.4601     0.5570 O.co2   
  20 O20            0.4596     0.1501     1.3311 O.co2   
  21 O21           -1.5266     5.4575     2.2603 O.3     
  22 O22            0.9376     5.7620     3.5153 O.3     
  23 O23           -1.7115    -0.4284     0.4179 O.3     
  24 O24           -1.1198     0.2176    -4.3480 O.3     
  25 N25           -4.6674     3.6974    -6.0705 N.2     
  26 C26           -4.2710     3.3198    -4.8904 C.2     
  27 N27           -3.7924     2.0430    -4.9497 N.pl3   
  28 C28           -3.9062     1.6211    -6.2466 C.2     
  29 N29           -3.6063     0.4856    -6.8879 N.2     
  30 C30           -3.8301     0.3535    -8.1763 C.2     
  31 N31           -4.3747     1.3580    -8.9195 N.am    
  32 C32           -4.7031     2.5343    -8.3408 C.2     
  33 C33           -4.4679     2.6897    -6.9546 C.2     
  34 O34           -5.1900     3.4391    -8.9971 O.2     
  35 N35           -3.5057    -0.8296    -8.7911 N.pl3   
  36 N36            5.0128     5.8899     4.6587 N.2     
  37 C37            3.9063     5.2435     4.4312 C.2     
  38 N38            3.7232     5.0993     3.0848 N.pl3   
  39 C39            4.7862     5.6964     2.4596 C.2     
  40 N40            5.1415     5.8655     1.1806 N.2     
  41 C41            6.2490     6.4970     0.8611 C.2     
  42 N42            7.0859     7.0079     1.8082 N.am    
  43 C43            6.7931     6.8758     3.1209 C.2     
  44 C44            5.6042     6.1984     3.4790 C.2     
  45 O45            7.5355     7.3290     3.9753 O.2     
  46 N46            6.5725     6.6459    -0.4644 N.pl3   
  47 H47           -0.6404     2.2620    -2.1368 H       
  48 H48            1.4538     1.9443     2.0948 H       
  49 H49           -0.3063     3.4814     2.3448 H       
  50 H50           -2.9295     1.2756    -0.7793 H       
  51 H51            0.7921    -0.6400    -0.7272 H       
  52 H52           -2.0703     3.9530    -1.8923 H       
  53 H53           -3.6514     3.7855    -1.0948 H       
  54 H54           -1.2864     6.0379    -0.4280 H       
  55 H55            2.0006     1.4955    -0.2520 H       
  56 H56            1.5967     3.1685    -0.7051 H       
  57 H57           -1.4003     2.2836    -4.3270 H       
  58 H58           -3.5328     0.2185    -3.9495 H       
  59 H59           -2.3640     5.8056     2.5958 H       
  60 H60            1.6426     6.2796     3.9276 H       
  61 H61           -1.6618    -0.6338     1.3615 H       
  62 H62           -1.3477     0.0558    -5.2738 H       
  63 H63           -4.3141     3.9258    -3.9975 H       
  64 H64           -4.5270     1.2280    -9.8686 H       
  65 H65           -3.1172    -1.5535    -8.2755 H       
  66 H66           -3.6650    -0.9420    -9.7414 H       
  67 H67            3.2340     4.8759     5.1923 H       
  68 H68            7.8960     7.4684     1.5385 H       
  69 H69            5.9871     6.2874    -1.1497 H       
  70 H70            7.3866     7.1095    -0.7158 H       
@<TRIPOS>BOND
   1    1    2 1
   2    1   12 1
   3    2    3 1
   4    2   20 ar
   5    2   23 1
   6    2   51 1
   7    3    4 1
   8    4    5 1
   9    4   47 1
  10    4   14 1
  11    5    6 1
  12    5   13 1
  13    5   50 1
  14    6    7 1
  15    6   52 1
  16    6   53 1
  17    7    8 1
  18    8    9 1
  19    8   19 ar
  20    8   21 1
  21    8   54 1
  22    9   10 1
  23   10   11 1
  24   10   17 1
  25   10   49 1
  26   11   12 1
  27   11   16 1
  28   11   48 1
  29   12   55 1
  30   12   56 1
  31   13   15 1
  32   14   15 1
  33   14   24 1
  34   14   57 1
  35   15   27 1
  36   15   58 1
  37   16   18 1
  38   17   18 2
  39   17   22 1
  40   18   38 1
  41   21   59 1
  42   22   60 1
  43   23   61 1
  44   24   62 1
  45   25   26 2
  46   25   33 1
  47   26   27 1
  48   26   63 1
  49   27   28 1
  50   28   29 1
  51   28   33 2
  52   29   30 2
  53   30   31 1
  54   30   35 1
  55   31   32 am
  56   31   64 1
  57   32   33 1
  58   32   34 2
  59   35   65 1
  60   35   66 1
  61   36   37 2
  62   36   44 1
  63   37   38 1
  64   37   67 1
  65   38   39 1
  66   39   40 1
  67   39   44 2
  68   40   41 2
  69   41   42 1
  70   41   46 1
  71   42   43 am
  72   42   68 1
  73   43   44 1
  74   43   45 2
  75   46   69 1
  76   46   70 1

#	End of record

