#	Name: ASD01810886
#	Creating user name:	WinNT
#	Creation time:	15. 06. 2019 19:25

#	Modifying user name:	WinNT
#	Modification time:	15. 06. 2019 19:25

#	Program:	/corina/corina34_cracker 3.40 0067  02.08.2006

@<TRIPOS>MOLECULE
ASD01810886
  56   60    0    0    0
SMALL
NO_CHARGES


@<TRIPOS>ATOM
   1 C1            -0.0170     1.4035     0.0098 C.ar    
   2 C2             0.0021    -0.0041     0.0020 C.ar    
   3 C3             1.2240    -0.6955    -0.0131 C.ar    
   4 C4             2.4054    -0.0325    -0.0199 C.ar    
   5 C5             2.4529     1.3757    -0.0126 C.ar    
   6 C6             3.6806     2.0620    -0.0195 C.ar    
   7 C7             3.6578     3.4288    -0.0119 C.ar    
   8 C8             2.4399     4.1023     0.0022 C.ar    
   9 N9             1.2971     3.4563     0.0091 N.ar    
  10 C10            1.2528     2.1263     0.0015 C.ar    
  11 C11           -1.2812    -0.7141     0.0106 C.2     
  12 N12           -2.4226     0.0049     0.0255 N.am    
  13 C13           -2.4070     1.3678     0.0325 C.2     
  14 C14           -1.2603     2.0731     0.0311 C.2     
  15 O15           -1.3159    -1.9320     0.0041 O.2     
  16 C16           -3.7092    -0.6957     0.0338 C.3     
  17 C17           -4.5138    -0.2991    -1.2057 C.3     
  18 C18           -5.8574    -1.0308    -1.1971 C.3     
  19 C19           -6.6384    -0.6483     0.0618 C.3     
  20 C20           -5.8338    -1.0448     1.3013 C.3     
  21 C21           -4.4901    -0.3131     1.2926 C.3     
  22 O22           -3.7844    -0.6564    -2.3815 O.3     
  23 C23            3.6928    -0.8157    -0.0351 C.3     
  24 C24            4.3084    -2.1833     3.4370 C.ar    
  25 C25            3.8213    -2.0672     2.1411 C.ar    
  26 C26            4.1986    -0.9783     1.3751 C.ar    
  27 C27            5.0540    -0.0392     1.9353 C.ar    
  28 C28            5.4992    -0.2184     3.2296 C.ar    
  29 N29            5.1219    -1.2675     3.9356 N.ar    
  30 O30            3.9415    -3.2433     4.2002 O.3     
  31 C31            4.4762    -3.3056     5.5240 C.3     
  32 F32            5.8729    -3.3532     5.4610 F       
  33 F33            4.0800    -2.1713     6.2407 F       
  34 H34            1.2221    -1.7755    -0.0190 H       
  35 H35            4.6166     1.5233    -0.0302 H       
  36 H36            4.5835     3.9851    -0.0166 H       
  37 H37            2.4349     5.1823     0.0081 H       
  38 H38           -3.3466     1.9001     0.0444 H       
  39 H39           -1.2913     3.1526     0.0371 H       
  40 H40           -3.5369    -1.7719     0.0261 H       
  41 H41           -4.6861     0.7771    -1.1980 H       
  42 H42           -6.4307    -0.7483    -2.0801 H       
  43 H43           -5.6852    -2.1071    -1.2047 H       
  44 H44           -6.8107     0.4280     0.0695 H       
  45 H45           -7.5956    -1.1695     0.0680 H       
  46 H46           -6.3901    -0.7723     2.1981 H       
  47 H47           -5.6615    -2.1211     1.2936 H       
  48 H48           -3.9169    -0.5956     2.1756 H       
  49 H49           -4.6624     0.7631     1.3003 H       
  50 H50           -4.2358    -0.4338    -3.2072 H       
  51 H51            3.5154    -1.7980    -0.4730 H       
  52 H52            4.4356    -0.2823    -0.6283 H       
  53 H53            3.1575    -2.8170     1.7368 H       
  54 H54            5.3681     0.8221     1.3644 H       
  55 H55            6.1651     0.5090     3.6700 H       
  56 H56            4.1043    -4.1997     6.0243 H       
@<TRIPOS>BOND
   1    1    2 ar
   2    1   10 ar
   3    1   14 1
   4    2    3 ar
   5    2   11 1
   6    3    4 ar
   7    3   34 1
   8    4    5 ar
   9    4   23 1
  10    5    6 ar
  11    5   10 ar
  12    6    7 ar
  13    6   35 1
  14    7    8 ar
  15    7   36 1
  16    8    9 ar
  17    8   37 1
  18    9   10 ar
  19   11   12 am
  20   11   15 2
  21   12   13 1
  22   12   16 1
  23   13   14 2
  24   13   38 1
  25   14   39 1
  26   16   17 1
  27   16   21 1
  28   16   40 1
  29   17   18 1
  30   17   22 1
  31   17   41 1
  32   18   19 1
  33   18   42 1
  34   18   43 1
  35   19   20 1
  36   19   44 1
  37   19   45 1
  38   20   21 1
  39   20   46 1
  40   20   47 1
  41   21   48 1
  42   21   49 1
  43   22   50 1
  44   23   26 1
  45   23   51 1
  46   23   52 1
  47   24   25 ar
  48   24   29 ar
  49   24   30 1
  50   25   26 ar
  51   25   53 1
  52   26   27 ar
  53   27   28 ar
  54   27   54 1
  55   28   29 ar
  56   28   55 1
  57   30   31 1
  58   31   32 1
  59   31   33 1
  60   31   56 1

#	End of record

