#	Name: ASD01918069
#	Creating user name:	WinNT
#	Creation time:	15. 06. 2019 20:10

#	Modifying user name:	WinNT
#	Modification time:	15. 06. 2019 20:10

#	Program:	/corina/corina34_cracker 3.40 0067  02.08.2006

@<TRIPOS>MOLECULE
ASD01918069
  48   51    0    0    0
SMALL
NO_CHARGES


@<TRIPOS>ATOM
   1 C1            -0.0229     1.4979     0.0323 C.3     
   2 C2            -0.0030    -0.0078     0.0104 C.2     
   3 C3             1.0839    -0.7502    -0.3152 C.2     
   4 C4             2.4195    -0.1741    -0.7032 C.3     
   5 C5             2.2210     1.3042    -1.0630 C.3     
   6 C6             1.4269     1.9996     0.0455 C.3     
   7 N7             0.7092    -2.0370    -0.2161 N.pl3   
   8 N8            -0.5299    -2.0648     0.1452 N.2     
   9 N9            -0.9807    -0.8643     0.2876 N.2     
  10 C10            1.5578    -3.2033    -0.4730 C.3     
  11 C11            1.4446     3.4891    -0.1831 C.2     
  12 N12            1.9234     4.3964     0.6322 N.2     
  13 C13            1.7243     5.5805     0.0146 C.2     
  14 N14            1.1425     5.3282    -1.1275 N.2     
  15 O15            0.9801     4.1333    -1.2580 O.3     
  16 N16            2.0729     6.8328     0.5025 N.3     
  17 C17            2.8289    -3.1055     0.3729 C.3     
  18 C18            0.7970    -4.4786    -0.1046 C.3     
  19 C19            1.9336    -3.2440    -1.9556 C.3     
  20 C20            1.6998     7.8909    -0.4476 C.3     
  21 C21            2.0466     9.2552     0.1543 C.3     
  22 O22            3.4387     9.2867     0.4805 O.3     
  23 C23            3.8367     8.2700     1.4042 C.3     
  24 C24            3.5080     6.8957     0.8150 C.3     
  25 H25           -0.5328     1.8714    -0.8557 H       
  26 H26           -0.5399     1.8454     0.9268 H       
  27 H27            3.1129    -0.2586     0.1335 H       
  28 H28            2.8152    -0.7119    -1.5647 H       
  29 H29            3.1931     1.7855    -1.1700 H       
  30 H30            1.6737     1.3789    -2.0027 H       
  31 H31            1.8798     1.7755     1.0112 H       
  32 H32            2.5611    -3.0765     1.4291 H       
  33 H33            3.4602    -3.9732     0.1818 H       
  34 H34            3.3709    -2.1969     0.1105 H       
  35 H35           -0.1086    -4.5483    -0.7073 H       
  36 H36            1.4283    -5.3464    -0.2958 H       
  37 H37            0.5292    -4.4497     0.9516 H       
  38 H38            2.3990    -2.2998    -2.2384 H       
  39 H39            2.6337    -4.0609    -2.1307 H       
  40 H40            1.0360    -3.4002    -2.5538 H       
  41 H41            2.2489     7.7538    -1.3791 H       
  42 H42            0.6289     7.8418    -0.6450 H       
  43 H43            1.8246    10.0394    -0.5695 H       
  44 H44            1.4575     9.4151     1.0573 H       
  45 H45            4.9093     8.3417     1.5844 H       
  46 H46            3.2996     8.4012     2.3436 H       
  47 H47            3.7571     6.1202     1.5393 H       
  48 H48            4.0860     6.7427    -0.0964 H       
@<TRIPOS>BOND
   1    1    2 1
   2    1    6 1
   3    1   25 1
   4    1   26 1
   5    2    9 1
   6    2    3 2
   7    3    4 1
   8    3    7 1
   9    4    5 1
  10    4   27 1
  11    4   28 1
  12    5    6 1
  13    5   29 1
  14    5   30 1
  15    6   11 1
  16    6   31 1
  17    7    8 1
  18    7   10 1
  19    8    9 2
  20   10   17 1
  21   10   18 1
  22   10   19 1
  23   11   12 2
  24   11   15 1
  25   12   13 1
  26   13   14 2
  27   13   16 1
  28   14   15 1
  29   16   20 1
  30   16   24 1
  31   17   32 1
  32   17   33 1
  33   17   34 1
  34   18   35 1
  35   18   36 1
  36   18   37 1
  37   19   38 1
  38   19   39 1
  39   19   40 1
  40   20   21 1
  41   20   41 1
  42   20   42 1
  43   21   22 1
  44   21   43 1
  45   21   44 1
  46   22   23 1
  47   23   24 1
  48   23   45 1
  49   23   46 1
  50   24   47 1
  51   24   48 1

#	End of record

