#	Name: ASD08150677
#	Creating user name:	WinNT
#	Creation time:	15. 06. 2019 21:16

#	Modifying user name:	WinNT
#	Modification time:	15. 06. 2019 21:16

#	Program:	/corina/corina34_cracker 3.40 0067  02.08.2006

@<TRIPOS>MOLECULE
ASD08150677
  57   60    0    0    0
SMALL
NO_CHARGES


@<TRIPOS>ATOM
   1 C1            -0.0184     1.5028     0.0103 C.2     
   2 C2             0.0021    -0.0041     0.0020 C.3     
   3 O3             1.0197     2.1211     0.0037 O.2     
   4 O4            -1.1898     2.1580     0.0194 O.3     
   5 F5             1.3272    -0.4524    -0.0130 F       
   6 F6            -0.6401    -0.4855     1.1479 F       
   7 F7            -0.6619    -0.4732    -1.1365 F       
   8 H8            -1.1523     3.1243     0.0245 H       
   9 C9             8.5214    16.4535    10.9308 C.2     
  10 N10            8.5382    15.1240    11.0232 N.2     
  11 C11            9.6714    14.4508    11.1098 C.2     
  12 C12           10.8870    15.1329    11.1059 C.2     
  13 C13           10.8722    16.5404    11.0083 C.2     
  14 N14            9.6831    17.1747    10.9218 N.am    
  15 C15            7.2880    17.1227    10.8353 C.2     
  16 C16            7.2677    18.4823    10.7407 C.2     
  17 C17            8.4755    19.1937    10.7399 C.2     
  18 C18            9.6522    18.5333    10.8256 C.2     
  19 O19           11.9152    17.1733    11.0024 O.2     
  20 C20            9.6501    12.9475    11.2133 C.3     
  21 C21            8.9876    12.5363    12.5297 C.3     
  22 N22            8.8913    12.3914    10.0902 N.pl3   
  23 N23            7.4405    10.9996     7.7645 N.2     
  24 C24            7.1242    10.0658     6.9151 C.2     
  25 N25            7.8855     8.9570     7.1369 N.pl3   
  26 C26            8.7195     9.2348     8.1903 C.ar    
  27 N27            9.6614     8.5628     8.8440 N.ar    
  28 C28           10.3091     9.1188     9.8463 C.ar    
  29 N29           10.0642    10.3514    10.2518 N.ar    
  30 C30            9.1403    11.1004     9.6586 C.ar    
  31 C31            8.4222    10.5508     8.5831 C.ar    
  32 C32           10.9442    19.3090    10.8170 C.3     
  33 C33           12.1678    14.3955    11.2027 C.ar    
  34 C34           13.0671    14.4123    10.1369 C.ar    
  35 C35           14.2610    13.7225    10.2322 C.ar    
  36 C36           14.5648    13.0148    11.3837 C.ar    
  37 C37           13.6748    12.9950    12.4452 C.ar    
  38 C38           12.4810    13.6867    12.3622 C.ar    
  39 F39           13.9768    12.3030    13.5655 F       
  40 F40           15.1330    13.7380     9.2004 F       
  41 H41            6.3640    16.5635    10.8366 H       
  42 H42            6.3272    19.0080    10.6664 H       
  43 H43            8.4664    20.2711    10.6651 H       
  44 H44           10.6711    12.5668    11.1859 H       
  45 H45            9.5522    12.9500    13.3653 H       
  46 H46            7.9666    12.9169    12.5571 H       
  47 H47            8.9722    11.4489    12.6046 H       
  48 H48            8.2144    12.9282     9.6492 H       
  49 H49            6.3693    10.1559     6.1479 H       
  50 H50            7.8449     8.1243     6.6411 H       
  51 H51           11.0687     8.5451    10.3563 H       
  52 H52           11.5512    18.9944     9.9682 H       
  53 H53           10.7279    20.3741    10.7342 H       
  54 H54           11.4878    19.1196    11.7426 H       
  55 H55           12.8308    14.9632     9.2385 H       
  56 H56           15.4984    12.4765    11.4541 H       
  57 H57           11.7899    13.6743    13.1920 H       
@<TRIPOS>BOND
   1    1    2 1
   2    1    3 2
   3    1    4 1
   4    2    5 1
   5    2    6 1
   6    2    7 1
   7    4    8 1
   8    9   10 2
   9    9   14 1
  10    9   15 1
  11   10   11 1
  12   11   12 2
  13   11   20 1
  14   12   13 1
  15   12   33 1
  16   13   14 am
  17   13   19 2
  18   14   18 1
  19   15   16 2
  20   15   41 1
  21   16   17 1
  22   16   42 1
  23   17   18 2
  24   17   43 1
  25   18   32 1
  26   20   21 1
  27   20   22 1
  28   20   44 1
  29   21   45 1
  30   21   46 1
  31   21   47 1
  32   22   30 1
  33   22   48 1
  34   23   24 2
  35   23   31 1
  36   24   25 1
  37   24   49 1
  38   25   26 1
  39   25   50 1
  40   26   27 ar
  41   26   31 ar
  42   27   28 ar
  43   28   29 ar
  44   28   51 1
  45   29   30 ar
  46   30   31 ar
  47   32   52 1
  48   32   53 1
  49   32   54 1
  50   33   34 ar
  51   33   38 ar
  52   34   35 ar
  53   34   55 1
  54   35   36 ar
  55   35   40 1
  56   36   37 ar
  57   36   56 1
  58   37   38 ar
  59   37   39 1
  60   38   57 1

#	End of record

