#	Name: ASD01915465
#	Creating user name:	WinNT
#	Creation time:	15. 06. 2019 20:05

#	Modifying user name:	WinNT
#	Modification time:	15. 06. 2019 20:05

#	Program:	/corina/corina34_cracker 3.40 0067  02.08.2006

@<TRIPOS>MOLECULE
ASD01915465
  42   44    0    0    0
SMALL
NO_CHARGES


@<TRIPOS>ATOM
   1 C1            -0.3715     1.7009     0.1175 C.ar    
   2 C2            -0.4966     0.3502     0.3875 C.ar    
   3 N3             0.5510    -0.3743     0.7189 N.ar    
   4 C4             1.7665     0.1536     0.8088 C.ar    
   5 C5             1.9722     1.5054     0.5526 C.ar    
   6 C6             0.8836     2.2984     0.1989 C.ar    
   7 C7            -1.8526    -0.3016     0.3013 C.3     
   8 O8             1.0419     3.6215    -0.0595 O.3     
   9 C9             2.2909     4.1470     0.0449 C.ar    
  10 C10            3.2305     3.9596    -0.9637 C.ar    
  11 N11            4.4356     4.4872    -0.8245 N.ar    
  12 C12            4.7499     5.1816     0.2506 C.ar    
  13 N13            3.8880     5.3807     1.2275 N.ar    
  14 C14            2.6609     4.8911     1.1606 C.ar    
  15 C15            2.9134    -0.7048     1.1858 C.2     
  16 N16            2.7209    -2.0152     1.4358 N.am    
  17 O17            4.0277    -0.2276     1.2696 O.2     
  18 C18            3.8121    -2.8441     1.6867 C.ar    
  19 C19            3.6186    -4.2134     1.8287 C.ar    
  20 C20            4.7112    -5.0254     2.0778 C.ar    
  21 C21            5.9646    -4.4371     2.1765 C.ar    
  22 C22            6.0835    -3.0695     2.0245 C.ar    
  23 N23            5.0246    -2.3212     1.7824 N.ar    
  24 C24            7.4415    -2.4247     2.1306 C.3     
  25 C25            7.7185    -1.6083     0.8666 C.3     
  26 H26           -1.2372     2.2849    -0.1580 H       
  27 H27            2.9611     1.9333     0.6267 H       
  28 H28           -2.0139    -0.6722    -0.7110 H       
  29 H29           -1.9016    -1.1328     1.0047 H       
  30 H30           -2.6232     0.4289     0.5478 H       
  31 H31            2.9799     3.3914    -1.8473 H       
  32 H32            5.7424     5.5992     0.3336 H       
  33 H33            1.9596     5.0585     1.9647 H       
  34 H34            1.8225    -2.3810     1.4410 H       
  35 H35            2.6288    -4.6377     1.7462 H       
  36 H36            4.5914    -6.0925     2.1931 H       
  37 H37            6.8376    -5.0425     2.3706 H       
  38 H38            7.4647    -1.7675     2.9999 H       
  39 H39            8.2030    -3.1970     2.2385 H       
  40 H40            8.7007    -1.1419     0.9433 H       
  41 H41            7.6953    -2.2655    -0.0027 H       
  42 H42            6.9570    -0.8360     0.7587 H       
@<TRIPOS>BOND
   1    1    2 ar
   2    1    6 ar
   3    1   26 1
   4    2    3 ar
   5    2    7 1
   6    3    4 ar
   7    4    5 ar
   8    4   15 1
   9    5    6 ar
  10    5   27 1
  11    6    8 1
  12    7   28 1
  13    7   29 1
  14    7   30 1
  15    8    9 1
  16    9   10 ar
  17    9   14 ar
  18   10   11 ar
  19   10   31 1
  20   11   12 ar
  21   12   13 ar
  22   12   32 1
  23   13   14 ar
  24   14   33 1
  25   15   16 am
  26   15   17 2
  27   16   18 1
  28   16   34 1
  29   18   19 ar
  30   18   23 ar
  31   19   20 ar
  32   19   35 1
  33   20   21 ar
  34   20   36 1
  35   21   22 ar
  36   21   37 1
  37   22   23 ar
  38   22   24 1
  39   24   25 1
  40   24   38 1
  41   24   39 1
  42   25   40 1
  43   25   41 1
  44   25   42 1

#	End of record

