#	Name: ASD05130040
#	Creating user name:	WinNT
#	Creation time:	15. 06. 2019 20:56

#	Modifying user name:	WinNT
#	Modification time:	15. 06. 2019 20:56

#	Program:	/corina/corina34_cracker 3.40 0067  02.08.2006

@<TRIPOS>MOLECULE
ASD05130040
  54   57    0    0    0
SMALL
NO_CHARGES


@<TRIPOS>ATOM
   1 N1            -0.1625     1.5512     0.1043 N.am    
   2 C2             0.0507     0.4236     0.8111 C.2     
   3 O3             1.1181     0.2465     1.3660 O.2     
   4 N4            -0.9192    -0.5077     0.9028 N.am    
   5 C5            -0.6629    -1.7237     1.5462 C.ar    
   6 C6            -1.6731    -2.3639     2.2520 C.ar    
   7 C7            -1.4170    -3.5640     2.8859 C.ar    
   8 C8            -0.1563    -4.1280     2.8184 C.ar    
   9 C9             0.8518    -3.4930     2.1164 C.ar    
  10 C10            0.6006    -2.2956     1.4755 C.ar    
  11 C11            0.8116     2.5591     0.0819 C.ar    
  12 C12            0.4341     3.8875    -0.0900 C.ar    
  13 C13            1.3922     4.8855    -0.1128 C.ar    
  14 C14            2.7295     4.5679     0.0353 C.ar    
  15 C15            3.1154     3.2373     0.2087 C.ar    
  16 C16            2.1487     2.2331     0.2367 C.ar    
  17 F17            3.6627     5.5446     0.0118 F       
  18 F18           -0.8714     4.2034    -0.2356 F       
  19 N19            6.5383     2.8546     1.7772 N.am    
  20 C20            5.2358     3.1678     1.6314 C.2     
  21 C21            4.5479     2.8939     0.3676 C.2     
  22 C22            5.2367     2.3187    -0.6651 C.2     
  23 C23            6.6041     1.9999    -0.4878 C.ar    
  24 C24            7.3476     1.4108    -1.5178 C.ar    
  25 N25            8.6176     1.1209    -1.3366 N.ar    
  26 C26            9.2438     1.3683    -0.1910 C.ar    
  27 C27            8.5821     1.9500     0.8810 C.ar    
  28 C28            7.2382     2.2767     0.7432 C.ar    
  29 O29            4.6277     3.6791     2.5548 O.2     
  30 N30           10.5854     1.0381    -0.0642 N.pl3   
  31 C31           11.2897     1.3047     1.1924 C.3     
  32 C32            7.2165     3.1386     3.0444 C.3     
  33 C33            7.0838     1.9318     3.9754 C.3     
  34 H34           -0.9882     1.6636    -0.3920 H       
  35 H35           -1.7948    -0.3351     0.5229 H       
  36 H36           -2.6579    -1.9237     2.3054 H       
  37 H37           -2.2021    -4.0622     3.4352 H       
  38 H38            0.0416    -5.0663     3.3152 H       
  39 H39            1.8355    -3.9359     2.0658 H       
  40 H40            1.3870    -1.8026     0.9234 H       
  41 H41            1.0946     5.9150    -0.2468 H       
  42 H42            2.4422     1.2029     0.3747 H       
  43 H43            4.7435     2.1103    -1.6030 H       
  44 H44            6.8762     1.1933    -2.4648 H       
  45 H45            9.1025     2.1452     1.8070 H       
  46 H46           11.0570     0.6308    -0.8076 H       
  47 H47           11.2601     2.3731     1.4059 H       
  48 H48           10.8064     0.7587     2.0027 H       
  49 H49           12.3266     0.9804     1.1036 H       
  50 H50            8.2714     3.3374     2.8553 H       
  51 H51            6.7606     4.0109     3.5129 H       
  52 H52            6.0289     1.7330     4.1645 H       
  53 H53            7.5396     1.0596     3.5069 H       
  54 H54            7.5884     2.1431     4.9182 H       
@<TRIPOS>BOND
   1    1    2 am
   2    1   11 1
   3    1   34 1
   4    2    3 2
   5    2    4 am
   6    4    5 1
   7    4   35 1
   8    5    6 ar
   9    5   10 ar
  10    6    7 ar
  11    6   36 1
  12    7    8 ar
  13    7   37 1
  14    8    9 ar
  15    8   38 1
  16    9   10 ar
  17    9   39 1
  18   10   40 1
  19   11   12 ar
  20   11   16 ar
  21   12   13 ar
  22   12   18 1
  23   13   14 ar
  24   13   41 1
  25   14   15 ar
  26   14   17 1
  27   15   16 ar
  28   15   21 1
  29   16   42 1
  30   19   20 am
  31   19   28 1
  32   19   32 1
  33   20   21 1
  34   20   29 2
  35   21   22 2
  36   22   23 1
  37   22   43 1
  38   23   24 ar
  39   23   28 ar
  40   24   25 ar
  41   24   44 1
  42   25   26 ar
  43   26   27 ar
  44   26   30 1
  45   27   28 ar
  46   27   45 1
  47   30   31 1
  48   30   46 1
  49   31   47 1
  50   31   48 1
  51   31   49 1
  52   32   33 1
  53   32   50 1
  54   32   51 1
  55   33   52 1
  56   33   53 1
  57   33   54 1

#	End of record

