#	Name: ASD08070673
#	Creating user name:	WinNT
#	Creation time:	15. 06. 2019 21:15

#	Modifying user name:	WinNT
#	Modification time:	15. 06. 2019 21:15

#	Program:	/corina/corina34_cracker 3.40 0067  02.08.2006

@<TRIPOS>MOLECULE
ASD08070673
  38   38    0    0    0
SMALL
NO_CHARGES


@<TRIPOS>ATOM
   1 C1            -0.0184     1.5028     0.0103 C.2     
   2 C2             0.0021    -0.0041     0.0020 C.3     
   3 C3            -0.7241    -0.5171    -1.2431 C.3     
   4 C4            -0.8126    -2.0436    -1.1892 C.3     
   5 C5            -1.6900    -2.4622    -0.0077 C.3     
   6 O6             1.0197     2.1211     0.0037 O.2     
   7 O7            -1.1898     2.1580     0.0194 O.3     
   8 N8             1.3897    -0.4735    -0.0138 N.am    
   9 C9             2.0717    -0.5994     1.1419 C.2     
  10 C10            3.4118    -1.0528     1.1267 C.2     
  11 C11            4.0982    -1.1794     2.2898 C.2     
  12 O12            1.5344    -0.3228     2.1992 O.2     
  13 C13            5.4393    -1.6331     2.2746 C.2     
  14 C14            6.2344    -1.8018     3.3779 C.2     
  15 C15            7.4956    -2.2547     3.0729 C.2     
  16 C16            7.7293    -2.4511     1.7695 C.2     
  17 S17            6.3498    -2.0779     0.8376 S.3     
  18 C18           -1.4263    -2.5652    -2.4901 C.3     
  19 C19           -1.1335     3.6089     0.0270 C.3     
  20 H20           -0.4983    -0.3791     0.8948 H       
  21 H21           -1.7288    -0.0959    -1.2772 H       
  22 H22           -0.1736    -0.2164    -2.1345 H       
  23 H23            0.1866    -2.4614    -1.0657 H       
  24 H24           -1.7530    -3.5497     0.0307 H       
  25 H25           -1.2528    -2.0906     0.9191 H       
  26 H26           -2.6891    -2.0444    -0.1312 H       
  27 H27            1.8177    -0.6938    -0.8559 H       
  28 H28            3.8882    -1.2980     0.1890 H       
  29 H29            3.6218    -0.9342     3.2275 H       
  30 H30            5.9034    -1.5987     4.3857 H       
  31 H31            8.2439    -2.4385     3.8297 H       
  32 H32            8.6654    -2.8035     1.3623 H       
  33 H33           -0.8012    -2.2670    -3.3318 H       
  34 H34           -1.4893    -3.6527    -2.4517 H       
  35 H35           -2.4254    -2.1474    -2.6135 H       
  36 H36           -0.6102     3.9569    -0.8636 H       
  37 H37           -2.1463     4.0118     0.0340 H       
  38 H38           -0.6017     3.9472     0.9164 H       
@<TRIPOS>BOND
   1    1    2 1
   2    1    6 2
   3    1    7 1
   4    2    3 1
   5    2    8 1
   6    2   20 1
   7    3    4 1
   8    3   21 1
   9    3   22 1
  10    4    5 1
  11    4   18 1
  12    4   23 1
  13    5   24 1
  14    5   25 1
  15    5   26 1
  16    7   19 1
  17    8    9 am
  18    8   27 1
  19    9   10 1
  20    9   12 2
  21   10   11 2
  22   10   28 1
  23   11   13 1
  24   11   29 1
  25   13   14 2
  26   13   17 1
  27   14   15 1
  28   14   30 1
  29   15   16 2
  30   15   31 1
  31   16   17 1
  32   16   32 1
  33   18   33 1
  34   18   34 1
  35   18   35 1
  36   19   36 1
  37   19   37 1
  38   19   38 1

#	End of record

