#	Name: ASD01148495
#	Creating user name:	WinNT
#	Creation time:	15. 06. 2019 19:02

#	Modifying user name:	WinNT
#	Modification time:	15. 06. 2019 19:02

#	Program:	/corina/corina34_cracker 3.40 0067  02.08.2006

@<TRIPOS>MOLECULE
ASD01148495
  50   53    0    0    0
SMALL
NO_CHARGES


@<TRIPOS>ATOM
   1 C1            -0.0180     1.4351     0.0450 C.ar    
   2 C2            -0.0166     0.0528     0.0405 C.ar    
   3 C3             1.1810    -0.6371     0.0176 C.ar    
   4 C4             2.3773     0.0553    -0.0013 C.ar    
   5 C5             2.3760     1.4376     0.0023 C.ar    
   6 C6             1.1783     2.1276     0.0267 C.ar    
   7 C7             3.6801     2.1925    -0.0177 C.3     
   8 O8             4.6901     1.4587    -0.7394 O.3     
   9 C9             3.5607     3.4817    -0.8651 C.3     
  10 C10            4.0472     3.0268    -2.2280 C.2     
  11 N11            4.6599     1.8982    -2.0830 N.2     
  12 C12            3.8541     3.7471    -3.4981 C.ar    
  13 C13            4.3771     3.1929    -4.7445 C.ar    
  14 C14            3.1690     4.9542    -3.5194 C.ar    
  15 C15            2.9726     5.6517    -4.6979 C.ar    
  16 C16            3.4519     5.1743    -5.9102 C.ar    
  17 C17            4.1765     3.9062    -5.9499 C.ar    
  18 C18            3.2270     5.9391    -7.1496 C.2     
  19 O19            3.7382     5.5737    -8.1907 O.2     
  20 N20            2.4547     7.0435    -7.1292 N.am    
  21 C21            4.6772     3.3863    -7.1500 C.ar    
  22 C22            5.0694     1.9755    -4.7710 C.ar    
  23 C23            4.1465     2.5121     1.4040 C.3     
  24 F24            4.3114     1.3212     2.1194 F       
  25 F25            5.3649     3.1975     1.3521 F       
  26 F26            3.1894     3.3097     2.0405 F       
  27 C27            2.2439     7.7604    -8.2910 C.2     
  28 N28            2.7866     7.3725    -9.3964 N.2     
  29 O29            2.5705     8.1074   -10.5873 O.3     
  30 C30            3.2305     7.5650   -11.7328 C.3     
  31 C31            5.5402     1.4945    -5.9565 C.ar    
  32 C32            5.3473     2.1990    -7.1418 C.ar    
  33 H33           -0.9537     1.9741     0.0584 H       
  34 H34           -0.9512    -0.4882     0.0552 H       
  35 H35            1.1821    -1.7171     0.0147 H       
  36 H36            3.3131    -0.4837    -0.0185 H       
  37 H37            1.1772     3.2076     0.0291 H       
  38 H38            2.5247     3.8167    -0.9161 H       
  39 H39            4.2033     4.2671    -0.4672 H       
  40 H40            2.7804     5.3574    -2.5959 H       
  41 H41            2.4344     6.5878    -4.6743 H       
  42 H42            2.0470     7.3349    -6.2987 H       
  43 H43            4.5332     3.9225    -8.0764 H       
  44 H44            5.2295     1.4216    -3.8578 H       
  45 H45            1.6251     8.6453    -8.2747 H       
  46 H46            4.3061     7.5459   -11.5573 H       
  47 H47            2.8735     6.5507   -11.9115 H       
  48 H48            3.0153     8.1845   -12.6034 H       
  49 H49            6.0742     0.5559    -5.9758 H       
  50 H50            5.7331     1.7989    -8.0678 H       
@<TRIPOS>BOND
   1    1    2 ar
   2    1    6 ar
   3    1   33 1
   4    2    3 ar
   5    2   34 1
   6    3    4 ar
   7    3   35 1
   8    4    5 ar
   9    4   36 1
  10    5    6 ar
  11    5    7 1
  12    6   37 1
  13    7    8 1
  14    7    9 1
  15    7   23 1
  16    8   11 1
  17    9   10 1
  18    9   38 1
  19    9   39 1
  20   10   11 2
  21   10   12 1
  22   12   13 ar
  23   12   14 ar
  24   13   22 ar
  25   13   17 ar
  26   14   15 ar
  27   14   40 1
  28   15   16 ar
  29   15   41 1
  30   16   17 ar
  31   16   18 1
  32   17   21 ar
  33   18   19 2
  34   18   20 am
  35   20   27 1
  36   20   42 1
  37   21   32 ar
  38   21   43 1
  39   22   31 ar
  40   22   44 1
  41   23   24 1
  42   23   25 1
  43   23   26 1
  44   27   28 2
  45   27   45 1
  46   28   29 1
  47   29   30 1
  48   30   46 1
  49   30   47 1
  50   30   48 1
  51   31   32 ar
  52   31   49 1
  53   32   50 1

#	End of record

