#	Name: ASD03320018
#	Creating user name:	WinNT
#	Creation time:	15. 06. 2019 20:35

#	Modifying user name:	WinNT
#	Modification time:	15. 06. 2019 20:35

#	Program:	/corina/corina34_cracker 3.40 0067  02.08.2006

@<TRIPOS>MOLECULE
ASD03320018
  60   64    0    0    0
SMALL
NO_CHARGES


@<TRIPOS>ATOM
   1 C1            -0.1489     0.5426     0.7643 C.ar    
   2 C2            -0.0769    -0.8403     0.5984 C.ar    
   3 C3             1.0017     1.2994     0.7483 C.ar    
   4 C4             2.2408     0.6816     0.5659 C.ar    
   5 C5             2.3118    -0.7031     0.3998 C.ar    
   6 C6             1.1601    -1.4582     0.4162 C.ar    
   7 C7             3.4763     1.4931     0.5481 C.2     
   8 N8             3.5022     2.6668    -0.1140 N.am    
   9 O9             4.4689     1.1018     1.1305 O.2     
  10 C10           -1.3166    -1.6545     0.6163 C.ar    
  11 C11           -1.2575    -3.0359     0.4518 C.ar    
  12 C12           -2.4528    -3.7547     0.4772 C.ar    
  13 N13           -3.5962    -3.0991     0.6563 N.ar    
  14 C14           -3.6098    -1.7899     0.8084 C.ar    
  15 N15           -2.5047    -1.0752     0.7959 N.ar    
  16 N16           -2.4490    -5.1322     0.3177 N.pl3   
  17 C17           -3.6364    -5.8557     0.4609 C.ar    
  18 C18           -3.8334    -7.0205    -0.2685 C.ar    
  19 C19           -5.0097    -7.7342    -0.1238 C.ar    
  20 C20           -5.9889    -7.2869     0.7475 C.ar    
  21 C21           -5.7939    -6.1268     1.4741 C.ar    
  22 C22           -4.6193    -5.4135     1.3378 C.ar    
  23 C23            4.6841     3.5377    -0.0463 C.3     
  24 C24            5.1622     3.8268    -1.4746 C.3     
  25 N25            4.0094     4.2583    -2.2775 N.am    
  26 C26            2.8276     3.3874    -2.3451 C.3     
  27 C27            2.3516     3.0957    -0.9214 C.3     
  28 C28            4.0353     5.4320    -2.9395 C.2     
  29 C29            5.2717     6.2409    -2.9611 C.ar    
  30 O30            3.0416     5.8251    -3.5189 O.2     
  31 C31            5.2320     7.5928    -2.6113 C.ar    
  32 C32            6.3923     8.3424    -2.6335 C.ar    
  33 C33            7.5899     7.7570    -3.0007 C.ar    
  34 C34            7.6354     6.4181    -3.3488 C.ar    
  35 C35            6.4861     5.6563    -3.3256 C.ar    
  36 F36           -5.2034    -8.8676    -0.8331 F       
  37 Cl37           3.7288     8.3290    -2.1507 Cl      
  38 H38           -1.1076     1.0207     0.9009 H       
  39 H39            0.9457     2.3703     0.8764 H       
  40 H40            3.2696    -1.1817     0.2583 H       
  41 H41            1.2149    -2.5292     0.2878 H       
  42 H42           -0.3118    -3.5373     0.3081 H       
  43 H43           -4.5558    -1.2891     0.9518 H       
  44 H44           -1.6223    -5.5938     0.1067 H       
  45 H45           -3.0697    -7.3687    -0.9481 H       
  46 H46           -6.9067    -7.8452     0.8594 H       
  47 H47           -6.5596    -5.7801     2.1522 H       
  48 H48           -4.4683    -4.5077     1.9063 H       
  49 H49            4.4213     4.4731     0.4479 H       
  50 H50            5.4762     3.0370     0.5103 H       
  51 H51            5.9119     4.6178    -1.4564 H       
  52 H52            5.5911     2.9227    -1.9068 H       
  53 H53            2.0354     3.8881    -2.9018 H       
  54 H54            3.0903     2.4520    -2.8393 H       
  55 H55            1.6020     2.3046    -0.9411 H       
  56 H56            1.9228     3.9987    -0.4868 H       
  57 H57            6.3638     9.3878    -2.3638 H       
  58 H58            8.4941     8.3474    -3.0164 H       
  59 H59            8.5744     5.9676    -3.6349 H       
  60 H60            6.5238     4.6118    -3.5975 H       
@<TRIPOS>BOND
   1    1    2 ar
   2    1    3 ar
   3    1   38 1
   4    2   10 1
   5    2    6 ar
   6    3    4 ar
   7    3   39 1
   8    4    5 ar
   9    4    7 1
  10    5    6 ar
  11    5   40 1
  12    6   41 1
  13    7    8 am
  14    7    9 2
  15    8   23 1
  16    8   27 1
  17   10   11 ar
  18   10   15 ar
  19   11   12 ar
  20   11   42 1
  21   12   13 ar
  22   12   16 1
  23   13   14 ar
  24   14   15 ar
  25   14   43 1
  26   16   17 1
  27   16   44 1
  28   17   18 ar
  29   17   22 ar
  30   18   19 ar
  31   18   45 1
  32   19   20 ar
  33   19   36 1
  34   20   21 ar
  35   20   46 1
  36   21   22 ar
  37   21   47 1
  38   22   48 1
  39   23   24 1
  40   23   49 1
  41   23   50 1
  42   24   25 1
  43   24   51 1
  44   24   52 1
  45   25   26 1
  46   25   28 am
  47   26   27 1
  48   26   53 1
  49   26   54 1
  50   27   55 1
  51   27   56 1
  52   28   29 1
  53   28   30 2
  54   29   31 ar
  55   29   35 ar
  56   31   32 ar
  57   31   37 1
  58   32   33 ar
  59   32   57 1
  60   33   34 ar
  61   33   58 1
  62   34   35 ar
  63   34   59 1
  64   35   60 1

#	End of record

