#	Name: ASD01882100
#	Creating user name:	WinNT
#	Creation time:	15. 06. 2019 19:43

#	Modifying user name:	WinNT
#	Modification time:	15. 06. 2019 19:43

#	Program:	/corina/corina34_cracker 3.40 0067  02.08.2006

@<TRIPOS>MOLECULE
ASD01882100
  54   57    0    0    0
SMALL
NO_CHARGES


@<TRIPOS>ATOM
   1 C1             1.5354     0.7525    -0.3908 C.3     
   2 N2             1.0810    -0.6351    -0.2295 N.3     
   3 C3            -0.3059    -0.6823     0.2522 C.3     
   4 C4            -0.7359    -2.1185     0.4052 C.2     
   5 C5            -1.2393    -2.8258    -0.7002 C.2     
   6 C6            -1.6258    -4.1121    -0.5687 C.2     
   7 N7            -1.5336    -4.7429     0.6370 N.pl3   
   8 C8            -1.0458    -4.0778     1.7351 C.2     
   9 C9            -0.6333    -2.7370     1.6123 C.2     
  10 C10           -0.0894    -1.9944     2.8055 C.3     
  11 C11           -1.8365    -5.9981     1.0661 C.2     
  12 N12           -1.5425    -6.0604     2.3391 N.2     
  13 N13           -1.0748    -4.9323     2.7448 N.2     
  14 F14           -1.0796    -1.1513     3.3210 F       
  15 F15            0.3000    -2.9114     3.7877 F       
  16 F16            1.0163    -1.2312     2.4155 F       
  17 C17           -2.4071    -7.1129     0.2278 C.3     
  18 C18           -1.2651    -7.9252    -0.3861 C.3     
  19 C19            3.0600     0.8067    -0.2750 C.3     
  20 C20            3.5332     2.2520    -0.4430 C.3     
  21 C21            3.1073     2.7715    -1.8177 C.3     
  22 C22            1.5827     2.7173    -1.9335 C.3     
  23 C23            1.1095     1.2721    -1.7655 C.3     
  24 C24            3.5734     4.1951    -1.9831 C.ar    
  25 C25            3.1371     5.1709    -1.1074 C.ar    
  26 C26            3.5637     6.4770    -1.2580 C.ar    
  27 C27            4.4293     6.8089    -2.2864 C.ar    
  28 C28            4.8675     5.8320    -3.1640 C.ar    
  29 C29            4.4434     4.5237    -3.0094 C.ar    
  30 F30            4.8702     3.5694    -3.8652 F       
  31 F31            4.8458     8.0856    -2.4335 F       
  32 H32            1.0897     1.3734     0.3863 H       
  33 H33            1.1825    -1.1512    -1.0906 H       
  34 H34           -0.3730    -0.1783     1.2163 H       
  35 H35           -0.9569    -0.1826    -0.4652 H       
  36 H36           -1.3174    -2.3370    -1.6601 H       
  37 H37           -2.0114    -4.6459    -1.4246 H       
  38 H38           -3.0189    -7.7620     0.8543 H       
  39 H39           -3.0216    -6.6913    -0.5677 H       
  40 H40           -1.6779    -8.7315    -0.9924 H       
  41 H41           -0.6534    -7.2761    -1.0126 H       
  42 H42           -0.6506    -8.3468     0.4094 H       
  43 H43            3.3634     0.4366     0.7043 H       
  44 H44            3.5057     0.1858    -1.0522 H       
  45 H45            3.0875     2.8729     0.3341 H       
  46 H46            4.6194     2.2906    -0.3606 H       
  47 H47            3.5530     2.1506    -2.5948 H       
  48 H48            1.1370     3.3382    -1.1563 H       
  49 H49            1.2793     3.0875    -2.9128 H       
  50 H50            1.5552     0.6512    -2.5426 H       
  51 H51            0.0233     1.2335    -1.8479 H       
  52 H52            2.4619     4.9129    -0.3049 H       
  53 H53            3.2215     7.2390    -0.5734 H       
  54 H54            5.5427     6.0900    -3.9665 H       
@<TRIPOS>BOND
   1    1    2 1
   2    1   19 1
   3    1   23 1
   4    1   32 1
   5    2    3 1
   6    2   33 1
   7    3    4 1
   8    3   34 1
   9    3   35 1
  10    4    5 1
  11    4    9 2
  12    5    6 2
  13    5   36 1
  14    6    7 1
  15    6   37 1
  16    7   11 1
  17    7    8 1
  18    8    9 1
  19    8   13 2
  20    9   10 1
  21   10   14 1
  22   10   15 1
  23   10   16 1
  24   11   12 2
  25   11   17 1
  26   12   13 1
  27   17   18 1
  28   17   38 1
  29   17   39 1
  30   18   40 1
  31   18   41 1
  32   18   42 1
  33   19   20 1
  34   19   43 1
  35   19   44 1
  36   20   21 1
  37   20   45 1
  38   20   46 1
  39   21   22 1
  40   21   24 1
  41   21   47 1
  42   22   23 1
  43   22   48 1
  44   22   49 1
  45   23   50 1
  46   23   51 1
  47   24   25 ar
  48   24   29 ar
  49   25   26 ar
  50   25   52 1
  51   26   27 ar
  52   26   53 1
  53   27   28 ar
  54   27   31 1
  55   28   29 ar
  56   28   54 1
  57   29   30 1

#	End of record

