#	Name: ASD01880750
#	Creating user name:	WinNT
#	Creation time:	15. 06. 2019 19:41

#	Modifying user name:	WinNT
#	Modification time:	15. 06. 2019 19:41

#	Program:	/corina/corina34_cracker 3.40 0067  02.08.2006

@<TRIPOS>MOLECULE
ASD01880750
  51   54    0    0    0
SMALL
NO_CHARGES


@<TRIPOS>ATOM
   1 N1             0.0047     1.3269    -0.1706 N.ar    
   2 C2             0.0075     0.0104    -0.1808 C.ar    
   3 N3             1.1161    -0.6849    -0.0200 N.ar    
   4 C4             2.2809    -0.0814     0.1598 C.ar    
   5 C5             2.3288     1.3013     0.1781 C.ar    
   6 C6             1.1358     2.0076     0.0047 C.ar    
   7 C7             3.6340     2.0268     0.3805 C.3     
   8 O8             4.6664     1.0801     0.6632 O.3     
   9 C9             5.9135     1.5726     0.8728 C.ar    
  10 C10            6.9652     0.7056     1.1529 C.ar    
  11 C11            8.2263     1.2050     1.3642 C.ar    
  12 C12            8.4621     2.5823     1.2997 C.ar    
  13 C13            7.4024     3.4487     1.0176 C.ar    
  14 C14            6.1402     2.9419     0.8016 C.ar    
  15 C15            9.5527     0.5604     1.6812 C.3     
  16 N16           10.5250     1.6543     1.7867 N.am    
  17 C17            9.8916     2.8190     1.5659 C.2     
  18 O18           10.4230     3.9124     1.5830 O.2     
  19 C19           -1.2937    -0.7227    -0.3816 C.3     
  20 C20            7.6414     4.9349     0.9455 C.3     
  21 C21            1.1293     3.4906     0.0152 C.ar    
  22 C22            2.0944     4.1994    -0.6982 C.ar    
  23 C23            2.0835     5.5794    -0.6848 C.ar    
  24 C24            1.1176     6.2591     0.0352 C.ar    
  25 C25            0.1576     5.5608     0.7454 C.ar    
  26 C26            0.1547     4.1808     0.7339 C.ar    
  27 C27           12.7298     1.3344     0.7778 C.3     
  28 C28           11.9514     1.5020     2.0843 C.3     
  29 H29            3.1825    -0.6613     0.2909 H       
  30 H30            3.8863     2.5801    -0.5242 H       
  31 H31            3.5385     2.7205     1.2158 H       
  32 H32            6.7895    -0.3588     1.2045 H       
  33 H33            5.3217     3.6119     0.5833 H       
  34 H34            9.4910     0.0215     2.6267 H       
  35 H35            9.8397    -0.1200     0.8795 H       
  36 H36           -1.4552    -0.8913    -1.4463 H       
  37 H37           -1.2544    -1.6811     0.1361 H       
  38 H38           -2.1127    -0.1260     0.0201 H       
  39 H39            7.9001     5.2121    -0.0764 H       
  40 H40            6.7371     5.4634     1.2474 H       
  41 H41            8.4597     5.2041     1.6133 H       
  42 H42            2.8494     3.6697    -1.2602 H       
  43 H43            2.8308     6.1296    -1.2373 H       
  44 H44            1.1131     7.3390     0.0431 H       
  45 H45           -0.5940     6.0967     1.3061 H       
  46 H46           -0.5954     3.6366     1.2885 H       
  47 H47           12.3717     0.4490     0.2525 H       
  48 H48           12.5813     2.2137     0.1510 H       
  49 H49           13.7911     1.2211     0.9992 H       
  50 H50           12.3095     2.3874     2.6096 H       
  51 H51           12.0999     0.6227     2.7111 H       
@<TRIPOS>BOND
   1    1    2 ar
   2    1    6 ar
   3    2    3 ar
   4    2   19 1
   5    3    4 ar
   6    4    5 ar
   7    4   29 1
   8    5    6 ar
   9    5    7 1
  10    6   21 1
  11    7    8 1
  12    7   30 1
  13    7   31 1
  14    8    9 1
  15    9   10 ar
  16    9   14 ar
  17   10   11 ar
  18   10   32 1
  19   11   12 ar
  20   11   15 1
  21   12   13 ar
  22   12   17 1
  23   13   14 ar
  24   13   20 1
  25   14   33 1
  26   15   16 1
  27   15   34 1
  28   15   35 1
  29   16   17 am
  30   16   28 1
  31   17   18 2
  32   19   36 1
  33   19   37 1
  34   19   38 1
  35   20   39 1
  36   20   40 1
  37   20   41 1
  38   21   22 ar
  39   21   26 ar
  40   22   23 ar
  41   22   42 1
  42   23   24 ar
  43   23   43 1
  44   24   25 ar
  45   24   44 1
  46   25   26 ar
  47   25   45 1
  48   26   46 1
  49   27   28 1
  50   27   47 1
  51   27   48 1
  52   27   49 1
  53   28   50 1
  54   28   51 1

#	End of record

