#	Name: ASD01913531
#	Creating user name:	WinNT
#	Creation time:	15. 06. 2019 20:01

#	Modifying user name:	WinNT
#	Modification time:	15. 06. 2019 20:01

#	Program:	/corina/corina34_cracker 3.40 0067  02.08.2006

@<TRIPOS>MOLECULE
ASD01913531
  57   60    0    0    0
SMALL
NO_CHARGES


@<TRIPOS>ATOM
   1 C1            -0.0797     1.3201    -0.1299 C.3     
   2 C2            -0.2690    -0.1667    -0.2864 C.2     
   3 N3            -0.8402    -0.9872     0.6136 N.pl3   
   4 N4            -0.8053    -2.2762     0.0573 N.2     
   5 C5            -0.2288    -2.1648    -1.1193 C.2     
   6 N6             0.0885    -0.8790    -1.3221 N.2     
   7 C7             0.0235    -3.2780    -2.0677 C.ar    
   8 C8             0.6463    -3.0278    -3.2891 C.ar    
   9 C9             0.8794    -4.0655    -4.1676 C.ar    
  10 C10            0.4953    -5.3553    -3.8371 C.ar    
  11 C11           -0.1240    -5.6084    -2.6241 C.ar    
  12 C12           -0.3562    -4.5770    -1.7372 C.ar    
  13 C13           -1.3906    -0.6102     1.9178 C.3     
  14 C14           -2.8474    -0.2563     1.7650 C.2     
  15 N15           -3.5650     0.1237     2.8407 N.am    
  16 O16           -3.3741    -0.3133     0.6740 O.2     
  17 F17            0.7251    -6.3686    -4.7005 F       
  18 C18           -2.9565     0.2031     4.1764 C.3     
  19 C19            1.4118     1.6543    -0.1988 C.3     
  20 C20           -0.8182     2.0494    -1.2540 C.3     
  21 C21           -3.9008    -0.3901     5.1848 C.2     
  22 C22           -5.1473    -0.6959     4.9148 C.2     
  23 C23           -5.7921    -0.5149     3.5728 C.3     
  24 C24           -4.9891     0.4820     2.7240 C.3     
  25 C25           -5.9713    -1.2565     6.0056 C.ar    
  26 C26           -7.2652    -1.7039     5.7360 C.ar    
  27 N27           -5.4728    -1.3359     7.2339 N.ar    
  28 C28           -6.1751    -1.8297     8.2332 C.ar    
  29 C29           -7.4653    -2.2865     8.0372 C.ar    
  30 C30           -8.0240    -2.2267     6.7679 C.ar    
  31 C31           -0.5399    -7.0130    -2.2703 C.3     
  32 H32           -0.4791     1.6379     0.8332 H       
  33 H33            0.9456    -2.0228    -3.5477 H       
  34 H34            1.3616    -3.8725    -5.1145 H       
  35 H35           -0.8391    -4.7752    -0.7917 H       
  36 H36           -1.2905    -1.4463     2.6099 H       
  37 H37           -0.8464     0.2505     2.3068 H       
  38 H38           -2.0194    -0.3536     4.1834 H       
  39 H39           -2.7636     1.2461     4.4274 H       
  40 H40            1.8112     1.3366    -1.1619 H       
  41 H41            1.5488     2.7298    -0.0856 H       
  42 H42            1.9379     1.1348     0.6020 H       
  43 H43           -1.8808     1.8113    -1.2049 H       
  44 H44           -0.6813     3.1248    -1.1408 H       
  45 H45           -0.4188     1.7316    -2.2171 H       
  46 H46           -3.5334    -0.5743     6.1835 H       
  47 H47           -5.8342    -1.4761     3.0605 H       
  48 H48           -6.8055    -0.1369     3.7077 H       
  49 H49           -5.1517     1.4948     3.0927 H       
  50 H50           -5.3012     0.4139     1.6818 H       
  51 H51           -7.6687    -1.6425     4.7361 H       
  52 H52           -5.7368    -1.8786     9.2191 H       
  53 H53           -8.0318    -2.6901     8.8635 H       
  54 H54           -9.0301    -2.5772     6.5906 H       
  55 H55            0.2769    -7.5138    -1.7507 H       
  56 H56           -1.4164    -6.9803    -1.6232 H       
  57 H57           -0.7811    -7.5609    -3.1813 H       
@<TRIPOS>BOND
   1    1    2 1
   2    1   19 1
   3    1   20 1
   4    1   32 1
   5    2    3 1
   6    2    6 2
   7    3    4 1
   8    3   13 1
   9    4    5 2
  10    5    6 1
  11    5    7 1
  12    7    8 ar
  13    7   12 ar
  14    8    9 ar
  15    8   33 1
  16    9   10 ar
  17    9   34 1
  18   10   11 ar
  19   10   17 1
  20   11   12 ar
  21   11   31 1
  22   12   35 1
  23   13   14 1
  24   13   36 1
  25   13   37 1
  26   14   15 am
  27   14   16 2
  28   15   18 1
  29   15   24 1
  30   18   21 1
  31   18   38 1
  32   18   39 1
  33   19   40 1
  34   19   41 1
  35   19   42 1
  36   20   43 1
  37   20   44 1
  38   20   45 1
  39   21   22 2
  40   21   46 1
  41   22   23 1
  42   22   25 1
  43   23   24 1
  44   23   47 1
  45   23   48 1
  46   24   49 1
  47   24   50 1
  48   25   26 ar
  49   25   27 ar
  50   26   30 ar
  51   26   51 1
  52   27   28 ar
  53   28   29 ar
  54   28   52 1
  55   29   30 ar
  56   29   53 1
  57   30   54 1
  58   31   55 1
  59   31   56 1
  60   31   57 1

#	End of record

