#	Name: ASD01900739
#	Creating user name:	WinNT
#	Creation time:	15. 06. 2019 19:52

#	Modifying user name:	WinNT
#	Modification time:	15. 06. 2019 19:52

#	Program:	/corina/corina34_cracker 3.40 0067  02.08.2006

@<TRIPOS>MOLECULE
ASD01900739
  62   66    0    0    0
SMALL
NO_CHARGES


@<TRIPOS>ATOM
   1 C1            -0.0186     1.4182     0.1367 C.ar    
   2 C2            -0.0086     0.0184     0.1259 C.ar    
   3 C3             1.2005    -0.6774     0.0649 C.ar    
   4 C4             2.3945     0.0228     0.0147 C.ar    
   5 C5             2.3660     1.4260     0.0308 C.ar    
   6 O6             3.5721    -0.6345    -0.0563 O.3     
   7 C7             4.7416    -0.0183     0.1905 C.2     
   8 C8             4.8665     1.3325     0.2217 C.2     
   9 C9             3.6619     2.1491    -0.0105 C.2     
  10 C10            5.9357    -0.8432     0.4374 C.2     
  11 N11            7.1292    -0.2515     0.6891 N.2     
  12 C12            8.2061    -0.9420     0.9124 C.2     
  13 N13            8.1924    -2.3098     0.9054 N.pl3   
  14 C14            7.0059    -2.9765     0.6549 C.2     
  15 C15            5.8399    -2.2246     0.4185 C.2     
  16 C16            1.1580     2.1126     0.0896 C.ar    
  17 C17            9.1671    -3.2393     1.1070 C.2     
  18 C18            8.6280    -4.4774     0.9907 C.2     
  19 C19            7.2670    -4.3330     0.7059 C.2     
  20 C20           -1.2442    -0.7034     0.1782 C.1     
  21 C21           -2.2573    -1.2951     0.2210 C.1     
  22 C22           -3.4930    -2.0169     0.2732 C.ar    
  23 C23           -3.4902    -3.4134     0.2628 C.ar    
  24 C24           -4.7067    -1.3266     0.3407 C.ar    
  25 C25           -5.8945    -2.0257     0.3913 C.ar    
  26 C26           -5.8895    -3.4088     0.3756 C.ar    
  27 C27           -4.6891    -4.1038     0.3140 C.ar    
  28 O28           -4.6913    -5.4628     0.2988 O.3     
  29 C29           -5.9643    -6.1101     0.3485 C.3     
  30 C30           -5.7665    -7.6270     0.3226 C.3     
  31 C31           -7.1295    -8.3200     0.3758 C.3     
  32 N32           -6.9396    -9.7765     0.3509 N.3     
  33 C33           -6.2639   -10.2402     1.5701 C.3     
  34 C34           -8.2201   -10.4712     0.1620 C.3     
  35 N35            3.7306     3.4397    -0.2390 N.2     
  36 O36            2.5655     4.1572    -0.6034 O.3     
  37 H37           -0.9574     1.9504     0.1779 H       
  38 H38            1.2047    -1.7574     0.0573 H       
  39 H39            5.8229     1.7968     0.4116 H       
  40 H40            9.1337    -0.4246     1.1079 H       
  41 H41            4.8969    -2.7121     0.2198 H       
  42 H42            1.1495     3.1925     0.0976 H       
  43 H43           10.2030    -3.0244     1.3244 H       
  44 H44            9.1576    -5.4124     1.0987 H       
  45 H45            6.5544    -5.1303     0.5544 H       
  46 H46           -2.5559    -3.9530     0.2145 H       
  47 H47           -4.7142    -0.2467     0.3536 H       
  48 H48           -6.8316    -1.4915     0.4438 H       
  49 H49           -6.8231    -3.9504     0.4155 H       
  50 H50           -6.4805    -5.8266     1.2657 H       
  51 H51           -6.5601    -5.8066    -0.5123 H       
  52 H52           -5.2504    -7.9105    -0.5946 H       
  53 H53           -5.1708    -7.9305     1.1834 H       
  54 H54           -7.6457    -8.0365     1.2930 H       
  55 H55           -7.7253    -8.0165    -0.4850 H       
  56 H56           -6.8668    -9.9812     2.4405 H       
  57 H57           -6.1360   -11.3217     1.5256 H       
  58 H58           -5.2877    -9.7617     1.6488 H       
  59 H59           -8.6660   -10.1607    -0.7829 H       
  60 H60           -8.0507   -11.5478     0.1474 H       
  61 H61           -8.8938   -10.2205     0.9814 H       
  62 H62            2.7150     5.1011    -0.7510 H       
@<TRIPOS>BOND
   1    1    2 ar
   2    1   16 ar
   3    1   37 1
   4    2    3 ar
   5    2   20 1
   6    3    4 ar
   7    3   38 1
   8    4    5 ar
   9    4    6 1
  10    5   16 ar
  11    5    9 1
  12    6    7 1
  13    7    8 2
  14    7   10 1
  15    8    9 1
  16    8   39 1
  17    9   35 2
  18   10   11 1
  19   10   15 2
  20   11   12 2
  21   12   13 1
  22   12   40 1
  23   13   14 1
  24   13   17 1
  25   14   15 1
  26   14   19 2
  27   15   41 1
  28   16   42 1
  29   17   18 2
  30   17   43 1
  31   18   19 1
  32   18   44 1
  33   19   45 1
  34   20   21 3
  35   21   22 1
  36   22   23 ar
  37   22   24 ar
  38   23   27 ar
  39   23   46 1
  40   24   25 ar
  41   24   47 1
  42   25   26 ar
  43   25   48 1
  44   26   27 ar
  45   26   49 1
  46   27   28 1
  47   28   29 1
  48   29   30 1
  49   29   50 1
  50   29   51 1
  51   30   31 1
  52   30   52 1
  53   30   53 1
  54   31   32 1
  55   31   54 1
  56   31   55 1
  57   32   33 1
  58   32   34 1
  59   33   56 1
  60   33   57 1
  61   33   58 1
  62   34   59 1
  63   34   60 1
  64   34   61 1
  65   35   36 1
  66   36   62 1

#	End of record

