#	Name: ASD08170244
#	Creating user name:	WinNT
#	Creation time:	15. 06. 2019 21:17

#	Modifying user name:	WinNT
#	Modification time:	15. 06. 2019 21:17

#	Program:	/corina/corina34_cracker 3.40 0067  02.08.2006

@<TRIPOS>MOLECULE
ASD08170244
  80   83    0    0    0
SMALL
NO_CHARGES


@<TRIPOS>ATOM
   1 N1            -0.3220     1.4601    -0.3568 N.2     
   2 N2            -0.5658     0.2219    -0.3198 N.2     
   3 C3             0.9215     1.8317    -0.3047 C.2     
   4 S4             1.9077     0.4352    -0.1950 S.3     
   5 C5             0.4572    -0.5677    -0.2326 C.2     
   6 C6             0.4155    -2.0730    -0.1729 C.3     
   7 C7             0.4797    -2.6416    -1.5919 C.3     
   8 C8             0.5017    -4.7385    -2.9502 C.3     
   9 C9             0.4600    -6.2437    -2.8906 C.2     
  10 N10           -0.6051    -6.9802    -2.9187 N.2     
  11 S11            1.8534    -7.3194    -2.7775 S.3     
  12 C12            0.7912    -8.6634    -2.7749 C.2     
  13 N13           -0.4301    -8.2290    -2.8576 N.2     
  14 N14            1.1735    -9.9986    -2.7020 N.am    
  15 C15            0.2379   -10.9688    -2.7083 C.2     
  16 O16           -0.9373   -10.6774    -2.7777 O.2     
  17 C17            0.6521   -12.4156    -2.6293 C.3     
  18 N18            1.3769     3.1455    -0.3334 N.am    
  19 C19            1.1367   -12.7306    -1.2126 C.3     
  20 C20            0.4964     4.1621    -0.4215 C.2     
  21 C21            0.9899     5.5857    -0.4526 C.3     
  22 O22           -0.6930     3.9312    -0.4759 O.2     
  23 C23            1.3172     6.0431     0.9703 C.3     
  24 C24            0.4374    -4.1698    -1.5313 C.3     
  25 C25            0.1098     5.8487     1.8508 C.ar    
  26 C26           -0.0353     4.6815     2.5771 C.ar    
  27 C27            1.6653   -14.1411    -1.1646 C.ar    
  28 N28           -0.4957   -13.2721    -2.9560 N.3     
  29 C29           -1.5690   -13.1145    -1.9654 C.3     
  30 C30           -0.9874   -12.9984    -4.3129 C.3     
  31 C31            2.9997   -14.3884    -1.4272 C.ar    
  32 C32            3.4845   -15.6822    -1.3832 C.ar    
  33 C33            2.6350   -16.7286    -1.0761 C.ar    
  34 C34            1.3008   -16.4812    -0.8126 C.ar    
  35 C35            0.8169   -15.1869    -0.8524 C.ar    
  36 C36           -0.8500     6.8398     1.9365 C.ar    
  37 C37           -1.9576     6.6615     2.7441 C.ar    
  38 C38           -2.1056     5.4918     3.4657 C.ar    
  39 C39           -1.1429     4.5031     3.3847 C.ar    
  40 N40           -0.0523     6.4529    -1.0181 N.3     
  41 C41            0.3770     7.8578    -1.0223 C.3     
  42 C42           -0.4274     6.0131    -2.3686 C.3     
  43 H43            1.2659    -2.4374     0.4034 H       
  44 H44           -0.5108    -2.3922     0.3048 H       
  45 H45           -0.3707    -2.2772    -2.1682 H       
  46 H46            1.4060    -2.3224    -2.0696 H       
  47 H47            1.4279    -4.4193    -3.4280 H       
  48 H48           -0.3487    -4.3740    -3.5265 H       
  49 H49            2.1134   -10.2317    -2.6465 H       
  50 H50            1.4582   -12.6020    -3.3389 H       
  51 H51            2.3282     3.3301    -0.2899 H       
  52 H52            1.9300   -12.0358    -0.9370 H       
  53 H53            0.3063   -12.6298    -0.5138 H       
  54 H54            1.8868     5.6460    -1.0690 H       
  55 H55            2.1487     5.4550     1.3587 H       
  56 H56            1.5924     7.0977     0.9586 H       
  57 H57            1.2878    -4.5343    -0.9550 H       
  58 H58           -0.4888    -4.4890    -1.0535 H       
  59 H59            0.7166     3.9088     2.5133 H       
  60 H60           -1.8809   -12.0707    -1.9305 H       
  61 H61           -2.4176   -13.7381    -2.2468 H       
  62 H62           -1.2049   -13.4179    -0.9838 H       
  63 H63           -0.1921   -13.1901    -5.0332 H       
  64 H64           -1.8371   -13.6460    -4.5290 H       
  65 H65           -1.2979   -11.9559    -4.3835 H       
  66 H66            3.6634   -13.5709    -1.6672 H       
  67 H67            4.5270   -15.8755    -1.5891 H       
  68 H68            3.0137   -17.7395    -1.0425 H       
  69 H69            0.6370   -17.2987    -0.5730 H       
  70 H70           -0.2255   -14.9935    -0.6465 H       
  71 H71           -0.7343     7.7537     1.3727 H       
  72 H72           -2.7070     7.4362     2.8116 H       
  73 H73           -2.9708     5.3526     4.0970 H       
  74 H74           -1.2586     3.5892     3.9485 H       
  75 H75            1.2472     7.9699    -1.6690 H       
  76 H76           -0.4342     8.4845    -1.3928 H       
  77 H77            0.6365     8.1614    -0.0081 H       
  78 H78           -0.7411     4.9697    -2.3369 H       
  79 H79           -1.2487     6.6284    -2.7361 H       
  80 H80            0.4292     6.1149    -3.0349 H       
@<TRIPOS>BOND
   1    1    2 1
   2    1    3 2
   3    2    5 2
   4    3    4 1
   5    3   18 1
   6    4    5 1
   7    5    6 1
   8    6    7 1
   9    6   43 1
  10    6   44 1
  11    7   24 1
  12    7   45 1
  13    7   46 1
  14    8    9 1
  15    8   24 1
  16    8   47 1
  17    8   48 1
  18    9   10 2
  19    9   11 1
  20   10   13 1
  21   11   12 1
  22   12   13 2
  23   12   14 1
  24   14   15 am
  25   14   49 1
  26   15   16 2
  27   15   17 1
  28   17   19 1
  29   17   28 1
  30   17   50 1
  31   18   20 am
  32   18   51 1
  33   19   27 1
  34   19   52 1
  35   19   53 1
  36   20   21 1
  37   20   22 2
  38   21   23 1
  39   21   40 1
  40   21   54 1
  41   23   25 1
  42   23   55 1
  43   23   56 1
  44   24   57 1
  45   24   58 1
  46   25   26 ar
  47   25   36 ar
  48   26   39 ar
  49   26   59 1
  50   27   31 ar
  51   27   35 ar
  52   28   29 1
  53   28   30 1
  54   29   60 1
  55   29   61 1
  56   29   62 1
  57   30   63 1
  58   30   64 1
  59   30   65 1
  60   31   32 ar
  61   31   66 1
  62   32   33 ar
  63   32   67 1
  64   33   34 ar
  65   33   68 1
  66   34   35 ar
  67   34   69 1
  68   35   70 1
  69   36   37 ar
  70   36   71 1
  71   37   38 ar
  72   37   72 1
  73   38   39 ar
  74   38   73 1
  75   39   74 1
  76   40   41 1
  77   40   42 1
  78   41   75 1
  79   41   76 1
  80   41   77 1
  81   42   78 1
  82   42   79 1
  83   42   80 1

#	End of record

