#	Name: ASD03240802
#	Creating user name:	WinNT
#	Creation time:	15. 06. 2019 20:35

#	Modifying user name:	WinNT
#	Modification time:	15. 06. 2019 20:35

#	Program:	/corina/corina34_cracker 3.40 0067  02.08.2006

@<TRIPOS>MOLECULE
ASD03240802
  72   79    0    0    0
SMALL
NO_CHARGES


@<TRIPOS>ATOM
   1 C1            -0.0470     1.2459     0.1175 C.3     
   2 C2             0.1513    -0.2777     0.0552 C.3     
   3 C3             1.5491    -0.0412     0.6511 C.3     
   4 C4             1.4840     1.3693     0.0418 C.3     
   5 O5            -0.7216     1.7825    -1.0222 O.3     
   6 C6             2.6191    -0.9120     0.0447 C.ar    
   7 C7             3.7104    -1.2927     0.8051 C.ar    
   8 C8             4.6934    -2.0898     0.2555 C.ar    
   9 C9             4.5850    -2.5123    -1.0695 C.ar    
  10 C10            3.4820    -2.1254    -1.8308 C.ar    
  11 C11            2.5033    -1.3320    -1.2684 C.ar    
  12 C12           10.1751    -4.5160    -1.9767 C.2     
  13 N13            9.9124    -5.4781    -2.8737 N.2     
  14 C14            8.6959    -5.7295    -3.2873 C.2     
  15 C15            7.5892    -4.9375    -2.7562 C.ar    
  16 C16            7.8732    -3.9269    -1.8124 C.ar    
  17 N17            9.1894    -3.7360    -1.4368 N.pl3   
  18 C18            6.2675    -5.1571    -3.1583 C.ar    
  19 C19            5.2757    -4.3562    -2.6012 C.ar    
  20 C20            5.6367    -3.3675    -1.6655 C.ar    
  21 N21            6.9000    -3.1889    -1.3084 N.ar    
  22 N22            9.7858    -2.8372    -0.5446 N.2     
  23 C23           11.0781    -3.0426    -0.5260 C.2     
  24 C24           11.3818    -4.0844    -1.4123 C.2     
  25 C25            3.8564    -4.5408    -2.9882 C.ar    
  26 C26            3.4993    -4.5922    -4.3347 C.ar    
  27 C27            2.1767    -4.7647    -4.6889 C.ar    
  28 C28            1.2061    -4.8861    -3.7108 C.ar    
  29 C29            1.5546    -4.8359    -2.3730 C.ar    
  30 C30            2.8747    -4.6695    -2.0069 C.ar    
  31 C31           12.7292    -4.6305    -1.6968 C.ar    
  32 C32           13.6915    -3.8330    -2.3157 C.ar    
  33 C33           14.9449    -4.3471    -2.5777 C.ar    
  34 C34           15.2478    -5.6509    -2.2279 C.ar    
  35 C35           14.2974    -6.4469    -1.6138 C.ar    
  36 C36           13.0423    -5.9424    -1.3418 C.ar    
  37 C37           12.0760    -2.2798     0.3066 C.3     
  38 C38           -0.6363     1.7336     1.4426 C.3     
  39 C39           -0.7319     3.2451     1.6595 C.3     
  40 C40           -1.9987     2.4284     1.3967 C.3     
  41 N41            1.5713    -0.0472     2.1199 N.3     
  42 H42           -0.5163    -0.8323     0.7146 H       
  43 H43            0.1708    -0.6744    -0.9599 H       
  44 H44            1.8678     1.4229    -0.9770 H       
  45 H45            1.8922     2.1444     0.6903 H       
  46 H46           -0.3465     1.5035    -1.8687 H       
  47 H47            3.7932    -0.9649     1.8308 H       
  48 H48            5.5452    -2.3858     0.8499 H       
  49 H49            3.3927    -2.4491    -2.8573 H       
  50 H50            1.6468    -1.0352    -1.8556 H       
  51 H51            8.5134    -6.5102    -4.0109 H       
  52 H52            6.0246    -5.9243    -3.8786 H       
  53 H53            4.2562    -4.4968    -5.0992 H       
  54 H54            1.8989    -4.8046    -5.7318 H       
  55 H55            0.1722    -5.0203    -3.9926 H       
  56 H56            0.7925    -4.9309    -1.6136 H       
  57 H57            3.1462    -4.6349    -0.9621 H       
  58 H58           13.4560    -2.8151    -2.5896 H       
  59 H59           15.6908    -3.7306    -3.0572 H       
  60 H60           16.2301    -6.0489    -2.4353 H       
  61 H61           14.5397    -7.4640    -1.3433 H       
  62 H62           12.3026    -6.5634    -0.8583 H       
  63 H63           12.1982    -2.7740     1.2705 H       
  64 H64           13.0348    -2.2512    -0.2111 H       
  65 H65           11.7169    -1.2626     0.4628 H       
  66 H66           -0.4163     1.1134     2.3115 H       
  67 H67           -0.5752     3.6193     2.6712 H       
  68 H68           -0.3749     3.8921     0.8582 H       
  69 H69           -2.4751     2.5381     0.4225 H       
  70 H70           -2.6754     2.2653     2.2355 H       
  71 H71            2.5187    -0.0574     2.4672 H       
  72 H72            1.0581     0.7376     2.4925 H       
@<TRIPOS>BOND
   1    1    2 1
   2    1    4 1
   3    1    5 1
   4    1   38 1
   5    2    3 1
   6    2   42 1
   7    2   43 1
   8    3    4 1
   9    3    6 1
  10    3   41 1
  11    4   44 1
  12    4   45 1
  13    5   46 1
  14    6    7 ar
  15    6   11 ar
  16    7    8 ar
  17    7   47 1
  18    8    9 ar
  19    8   48 1
  20    9   10 ar
  21    9   20 1
  22   10   11 ar
  23   10   49 1
  24   11   50 1
  25   12   13 1
  26   12   17 1
  27   12   24 2
  28   13   14 2
  29   14   15 1
  30   14   51 1
  31   15   16 ar
  32   15   18 ar
  33   16   17 1
  34   16   21 ar
  35   17   22 1
  36   18   19 ar
  37   18   52 1
  38   19   20 ar
  39   19   25 1
  40   20   21 ar
  41   22   23 2
  42   23   24 1
  43   23   37 1
  44   24   31 1
  45   25   26 ar
  46   25   30 ar
  47   26   27 ar
  48   26   53 1
  49   27   28 ar
  50   27   54 1
  51   28   29 ar
  52   28   55 1
  53   29   30 ar
  54   29   56 1
  55   30   57 1
  56   31   32 ar
  57   31   36 ar
  58   32   33 ar
  59   32   58 1
  60   33   34 ar
  61   33   59 1
  62   34   35 ar
  63   34   60 1
  64   35   36 ar
  65   35   61 1
  66   36   62 1
  67   37   63 1
  68   37   64 1
  69   37   65 1
  70   38   39 1
  71   38   40 1
  72   38   66 1
  73   39   40 1
  74   39   67 1
  75   39   68 1
  76   40   69 1
  77   40   70 1
  78   41   71 1
  79   41   72 1

#	End of record

