#	Name: ASD04882061
#	Creating user name:	WinNT
#	Creation time:	15. 06. 2019 20:54

#	Modifying user name:	WinNT
#	Modification time:	15. 06. 2019 20:54

#	Program:	/corina/corina34_cracker 3.40 0067  02.08.2006

@<TRIPOS>MOLECULE
ASD04882061
  74   78    0    0    0
SMALL
NO_CHARGES


@<TRIPOS>ATOM
   1 N1            -2.1319    -0.6387     0.3634 N.am    
   2 C2            -1.6575    -1.9560     0.3174 C.ar    
   3 C3            -2.5554    -3.0254     0.3787 C.ar    
   4 C4            -2.0859    -4.3331     0.3336 C.ar    
   5 C5            -0.7351    -4.5799     0.2280 C.ar    
   6 C6             0.1683    -3.5151     0.1664 C.ar    
   7 C7            -0.3015    -2.1993     0.2057 C.ar    
   8 N8            -3.9220    -2.7805     0.4854 N.3     
   9 C9            -4.2497    -2.1818     1.7869 C.3     
  10 C10           -4.6961    -4.0100     0.2647 C.3     
  11 C11           -6.1908    -3.6839     0.3114 C.3     
  12 N12           -6.5184    -3.0851     1.6128 N.3     
  13 C13           -5.7443    -1.8556     1.8335 C.3     
  14 C14           -1.3851     0.3270     0.9345 C.2     
  15 O15           -0.3415     0.0400     1.4913 O.2     
  16 C16           -1.8297     1.7234     0.8850 C.2     
  17 O17           -2.9599     2.1753     0.3033 O.3     
  18 C18           -1.1752     2.7935     1.4248 C.2     
  19 C19           -1.9536     3.9269     1.1423 C.2     
  20 C20           -3.0372     3.5039     0.4545 C.2     
  21 C21            1.6153    -3.7798     0.0538 C.2     
  22 N22            2.0669    -5.0489     0.0105 N.am    
  23 O23            2.4005    -2.8529     0.0002 O.2     
  24 C24           -7.8893    -2.8395     1.7199 C.ar    
  25 C25           -8.5164    -1.9889     0.8188 C.ar    
  26 C26           -9.8723    -1.7485     0.9272 C.ar    
  27 C27          -10.6050    -2.3534     1.9317 C.ar    
  28 C28           -9.9836    -3.2010     2.8308 C.ar    
  29 C29           -8.6296    -3.4501     2.7246 C.ar    
  30 C30           -7.9534    -4.3742     3.7043 C.3     
  31 C31            3.5038    -5.3116    -0.1013 C.3     
  32 C32            3.8158    -6.6939     0.4769 C.3     
  33 C33            5.3235    -6.9509     0.3899 C.3     
  34 N34            5.7549    -6.7678    -1.0026 N.am    
  35 C35            5.4260    -5.5085    -1.6844 C.3     
  36 C36            3.9171    -5.2677    -1.5742 C.3     
  37 C37            6.4397    -7.7365    -1.6423 C.2     
  38 O38            6.8506    -7.5466    -2.7675 O.2     
  39 C39            6.6949    -9.0554    -0.9595 C.3     
  40 H40           -2.9962    -0.4208    -0.0193 H       
  41 H41           -2.7820    -5.1574     0.3818 H       
  42 H42           -0.3735    -5.5969     0.1933 H       
  43 H43            0.3942    -1.3746     0.1579 H       
  44 H44           -4.0060    -2.8856     2.5827 H       
  45 H45           -3.6734    -1.2664     1.9215 H       
  46 H46           -4.4453    -4.4276    -0.7104 H       
  47 H47           -4.4576    -4.7346     1.0432 H       
  48 H48           -6.4344    -2.9800    -0.4844 H       
  49 H49           -6.7671    -4.5992     0.1768 H       
  50 H50           -5.9951    -1.4381     2.8087 H       
  51 H51           -5.9829    -1.1310     1.0550 H       
  52 H52           -0.2402     2.7719     1.9647 H       
  53 H53           -1.7300     4.9452     1.4242 H       
  54 H54           -3.8339     4.1335     0.0869 H       
  55 H55            1.4405    -5.7883     0.0532 H       
  56 H56           -7.9445    -1.5155     0.0343 H       
  57 H57          -10.3606    -1.0872     0.2268 H       
  58 H58          -11.6649    -2.1632     2.0148 H       
  59 H59          -10.5588    -3.6715     3.6145 H       
  60 H60           -7.9856    -5.3948     3.3228 H       
  61 H61           -6.9156    -4.0680     3.8358 H       
  62 H62           -8.4700    -4.3283     4.6630 H       
  63 H63            4.0559    -4.5529     0.4534 H       
  64 H64            3.4998    -6.7320     1.5193 H       
  65 H65            3.2835    -7.4553    -0.0932 H       
  66 H66            5.8519    -6.2460     1.0318 H       
  67 H67            5.5393    -7.9708     0.7082 H       
  68 H68            5.9628    -4.6861    -1.2116 H       
  69 H69            5.7094    -5.5768    -2.7347 H       
  70 H70            3.3839    -6.0426    -2.1249 H       
  71 H71            3.6732    -4.2908    -1.9915 H       
  72 H72            5.8950    -9.7533    -1.2066 H       
  73 H73            7.6484    -9.4611    -1.2976 H       
  74 H74            6.7260    -8.9058     0.1198 H       
@<TRIPOS>BOND
   1    1    2 1
   2    1   14 am
   3    1   40 1
   4    2    3 ar
   5    2    7 ar
   6    3    4 ar
   7    3    8 1
   8    4    5 ar
   9    4   41 1
  10    5    6 ar
  11    5   42 1
  12    6    7 ar
  13    6   21 1
  14    7   43 1
  15    8    9 1
  16    8   10 1
  17    9   13 1
  18    9   44 1
  19    9   45 1
  20   10   11 1
  21   10   46 1
  22   10   47 1
  23   11   12 1
  24   11   48 1
  25   11   49 1
  26   12   13 1
  27   12   24 1
  28   13   50 1
  29   13   51 1
  30   14   15 2
  31   14   16 1
  32   16   17 1
  33   16   18 2
  34   17   20 1
  35   18   19 1
  36   18   52 1
  37   19   20 2
  38   19   53 1
  39   20   54 1
  40   21   22 am
  41   21   23 2
  42   22   31 1
  43   22   55 1
  44   24   25 ar
  45   24   29 ar
  46   25   26 ar
  47   25   56 1
  48   26   27 ar
  49   26   57 1
  50   27   28 ar
  51   27   58 1
  52   28   29 ar
  53   28   59 1
  54   29   30 1
  55   30   60 1
  56   30   61 1
  57   30   62 1
  58   31   32 1
  59   31   36 1
  60   31   63 1
  61   32   33 1
  62   32   64 1
  63   32   65 1
  64   33   34 1
  65   33   66 1
  66   33   67 1
  67   34   35 1
  68   34   37 am
  69   35   36 1
  70   35   68 1
  71   35   69 1
  72   36   70 1
  73   36   71 1
  74   37   38 2
  75   37   39 1
  76   39   72 1
  77   39   73 1
  78   39   74 1

#	End of record

