#	Name: ASD03540038
#	Creating user name:	WinNT
#	Creation time:	15. 06. 2019 20:42

#	Modifying user name:	WinNT
#	Modification time:	15. 06. 2019 20:42

#	Program:	/corina/corina34_cracker 3.40 0067  02.08.2006

@<TRIPOS>MOLECULE
ASD03540038
  71   73    0    0    0
SMALL
NO_CHARGES


@<TRIPOS>ATOM
   1 C1            -0.0180     1.4730     0.0101 C.2     
   2 C2             0.0021    -0.0041     0.0020 C.ar    
   3 C3             1.2188    -0.6888    -0.0133 C.ar    
   4 C4             1.2303    -2.0682    -0.0203 C.ar    
   5 C5             0.0396    -2.7731    -0.0127 C.ar    
   6 C6            -1.1697    -2.1009     0.0020 C.ar    
   7 C7            -1.1956    -0.7217     0.0154 C.ar    
   8 O8             1.0256     2.0946     0.0035 O.2     
   9 O9            -1.1936     2.1307     0.0193 O.3     
  10 C10            0.0601    -4.2800    -0.0210 C.3     
  11 C11           -1.0793    -5.0129     1.9841 C.2     
  12 N12           -1.1282    -5.4741     3.2648 N.am    
  13 C13            0.0660    -5.6934     3.9082 C.2     
  14 C14            1.2694    -5.4570     3.2839 C.2     
  15 C15            1.2641    -4.9828     1.9656 C.2     
  16 N16            0.0799    -4.7757     1.3575 N.am    
  17 S17           -0.3445    -6.2790     5.5261 S.3     
  18 C18           -2.2430    -5.7502     4.0017 C.2     
  19 C19           -2.0947    -6.1994     5.2558 C.2     
  20 O20            2.3113    -4.7614     1.3799 O.2     
  21 O21           -2.1210    -4.8151     1.3895 O.2     
  22 C22            2.5694    -5.7028     4.0056 C.3     
  23 C23           -3.1579    -6.5514     6.2056 C.2     
  24 N24           -2.8408    -6.9912     7.4395 N.am    
  25 O25           -4.3252    -6.4461     5.8786 O.2     
  26 C26           -3.9015    -7.3424     8.3870 C.3     
  27 C27           -3.2853    -7.8015     9.6834 C.ar    
  28 C28           -3.0147    -6.8842    10.6819 C.ar    
  29 C29           -2.4498    -7.3025    11.8711 C.ar    
  30 C30           -2.1540    -8.6443    12.0631 C.ar    
  31 C31           -2.4265    -9.5627    11.0596 C.ar    
  32 C32           -2.9966    -9.1401     9.8743 C.ar    
  33 O33           -1.5979    -9.0582    13.2319 O.3     
  34 C34           -1.3202   -10.4542    13.3597 C.3     
  35 C35           -1.1373     3.5816     0.0269 C.3     
  36 C36           -2.5589     4.1471     0.0367 C.3     
  37 N37           -3.2243     3.7774     1.2931 N.3     
  38 C38           -2.5808     4.4296     2.4414 C.3     
  39 C39           -4.6578     4.0946     1.2428 C.3     
  40 H40            2.1488    -0.1398    -0.0199 H       
  41 H41            2.1707    -2.5992    -0.0321 H       
  42 H42           -2.0953    -2.6572     0.0071 H       
  43 H43           -2.1401    -0.1983     0.0318 H       
  44 H44           -0.8298    -4.6526    -0.5283 H       
  45 H45            0.9499    -4.6284    -0.5452 H       
  46 H46           -3.2279    -5.6090     3.5817 H       
  47 H47            2.8927    -6.7292     3.8323 H       
  48 H48            3.3280    -5.0150     3.6321 H       
  49 H49            2.4277    -5.5420     5.0743 H       
  50 H50           -1.9103    -7.0752     7.7001 H       
  51 H51           -4.5276    -6.4694     8.5714 H       
  52 H52           -4.5103    -8.1446     7.9699 H       
  53 H53           -3.2448    -5.8397    10.5319 H       
  54 H54           -2.2383    -6.5856    12.6507 H       
  55 H55           -2.1971   -10.6078    11.2066 H       
  56 H56           -3.2133    -9.8554     9.0947 H       
  57 H57           -2.2468   -11.0195    13.2598 H       
  58 H58           -0.6228   -10.7588    12.5795 H       
  59 H59           -0.8794   -10.6489    14.3374 H       
  60 H60           -0.6055     3.9199     0.9162 H       
  61 H61           -0.6140     3.9295    -0.8637 H       
  62 H62           -2.5185     5.2331    -0.0471 H       
  63 H63           -3.1184     3.7383    -0.8047 H       
  64 H64           -2.6355     5.5117     2.3222 H       
  65 H65           -3.0930     4.1388     3.3585 H       
  66 H66           -1.5364     4.1223     2.4954 H       
  67 H67           -5.1233     3.5437     0.4255 H       
  68 H68           -5.1260     3.8108     2.1854 H       
  69 H69           -4.7877     5.1645     1.0802 H       
  70 H70            8.3280    10.5117    19.3374 H       
  71 Cl71           8.3280    11.8817    19.3374 Cl      
@<TRIPOS>BOND
   1    1    2 1
   2    1    8 2
   3    1    9 1
   4    2    3 ar
   5    2    7 ar
   6    3    4 ar
   7    3   40 1
   8    4    5 ar
   9    4   41 1
  10    5    6 ar
  11    5   10 1
  12    6    7 ar
  13    6   42 1
  14    7   43 1
  15    9   35 1
  16   10   16 1
  17   10   44 1
  18   10   45 1
  19   11   12 am
  20   11   16 am
  21   11   21 2
  22   12   13 1
  23   12   18 1
  24   13   14 2
  25   13   17 1
  26   14   15 1
  27   14   22 1
  28   15   16 am
  29   15   20 2
  30   17   19 1
  31   18   19 2
  32   18   46 1
  33   19   23 1
  34   22   47 1
  35   22   48 1
  36   22   49 1
  37   23   24 am
  38   23   25 2
  39   24   26 1
  40   24   50 1
  41   26   27 1
  42   26   51 1
  43   26   52 1
  44   27   28 ar
  45   27   32 ar
  46   28   29 ar
  47   28   53 1
  48   29   30 ar
  49   29   54 1
  50   30   31 ar
  51   30   33 1
  52   31   32 ar
  53   31   55 1
  54   32   56 1
  55   33   34 1
  56   34   57 1
  57   34   58 1
  58   34   59 1
  59   35   36 1
  60   35   60 1
  61   35   61 1
  62   36   37 1
  63   36   62 1
  64   36   63 1
  65   37   38 1
  66   37   39 1
  67   38   64 1
  68   38   65 1
  69   38   66 1
  70   39   67 1
  71   39   68 1
  72   39   69 1
  73   70   71 1

#	End of record

