#	Name: ASD03092337
#	Creating user name:	WinNT
#	Creation time:	15. 06. 2019 20:32

#	Modifying user name:	WinNT
#	Modification time:	15. 06. 2019 20:32

#	Program:	/corina/corina34_cracker 3.40 0067  02.08.2006

@<TRIPOS>MOLECULE
ASD03092337
  68   71    0    0    0
SMALL
NO_CHARGES


@<TRIPOS>ATOM
   1 C1            -0.4926     2.1183     0.9496 C.3     
   2 C2            -1.5649     1.5728     1.8949 C.3     
   3 C3            -0.7635     0.6138     1.0123 C.3     
   4 C4            -0.9582     2.8586    -0.2777 C.2     
   5 O5            -1.0533     2.2765    -1.3374 O.2     
   6 N6            -1.2690     4.1676    -0.1976 N.am    
   7 C7            -1.4865    -0.0240    -0.1758 C.3     
   8 C8             0.2860    -0.2651     1.6956 C.3     
   9 C9            -1.2554     1.5796     3.3932 C.3     
  10 C10           -3.0278     1.8207     1.5218 C.3     
  11 C11           -1.7217     4.8873    -1.3907 C.3     
  12 S12           -3.1034     8.4877    -0.3295 S.3     
  13 C13           -1.4453     8.4644    -0.7446 C.2     
  14 N14           -1.0803     7.2622    -1.0751 N.2     
  15 C15           -2.0017     6.3245    -1.0343 C.2     
  16 C16           -3.2192     6.7585    -0.6462 C.2     
  17 C17           -6.3435     5.1964     0.7331 C.ar    
  18 C18           -5.2175     5.9863     0.6495 C.ar    
  19 C19           -4.4334     5.9304    -0.5106 C.ar    
  20 C20           -4.8348     5.0666    -1.5384 C.ar    
  21 C21           -5.9755     4.3122    -1.3693 C.ar    
  22 N22           -6.6857     4.3959    -0.2595 N.ar    
  23 C23           -6.4187     3.3791    -2.4665 C.3     
  24 C24           -7.1925     5.2418     1.9774 C.3     
  25 N25           -0.6117     9.5679    -0.7310 N.3     
  26 C26           -1.3401    10.7734    -0.3098 C.3     
  27 C27           -0.3975    11.9785    -0.3662 C.3     
  28 O28            0.7455    11.7222     0.4542 O.3     
  29 C29            1.4788    10.5555     0.0716 C.3     
  30 C30            0.5553     9.3360     0.1325 C.3     
  31 C31            2.6547    10.3542     1.0296 C.3     
  32 C32           -1.1266    13.2218     0.1472 C.3     
  33 H33            0.4333     2.4819     1.3951 H       
  34 H34           -1.1930     4.6332     0.6499 H       
  35 H35           -0.7986    -0.6788    -0.7107 H       
  36 H36           -2.3352    -0.6051     0.1847 H       
  37 H37           -1.8406     0.7578    -0.8478 H       
  38 H38            1.0288     0.3673     2.1818 H       
  39 H39           -0.1981    -0.8959     2.4412 H       
  40 H40            0.7749    -0.8930     0.9507 H       
  41 H41           -1.8971     2.3049     3.8935 H       
  42 H42           -1.4376     0.5874     3.8063 H       
  43 H43           -0.2111     1.8512     3.5473 H       
  44 H44           -3.0921     2.1021     0.4707 H       
  45 H45           -3.6049     0.9115     1.6905 H       
  46 H46           -3.4288     2.6252     2.1385 H       
  47 H47           -0.9460     4.8471    -2.1554 H       
  48 H48           -2.6316     4.4234    -1.7714 H       
  49 H49           -4.9439     6.6390     1.4653 H       
  50 H50           -4.2591     4.9935    -2.4493 H       
  51 H51           -5.9650     2.3996    -2.3158 H       
  52 H52           -7.5044     3.2838    -2.4459 H       
  53 H53           -6.1074     3.7792    -3.4315 H       
  54 H54           -7.9584     6.0094     1.8668 H       
  55 H55           -7.6683     4.2728     2.1282 H       
  56 H56           -6.5647     5.4761     2.8371 H       
  57 H57           -2.1848    10.9404    -0.9781 H       
  58 H58           -1.7023    10.6420     0.7098 H       
  59 H59           -0.0776    12.1424    -1.3952 H       
  60 H60            1.8534    10.6780    -0.9446 H       
  61 H61            0.2234     9.1817     1.1592 H       
  62 H62            1.0941     8.4537    -0.2129 H       
  63 H63            2.2788    10.2299     2.0452 H       
  64 H64            3.2132     9.4649     0.7375 H       
  65 H65            3.3098    11.2244     0.9887 H       
  66 H66           -1.4443    13.0573     1.1768 H       
  67 H67           -0.4550    14.0794     0.1068 H       
  68 H68           -1.9997    13.4143    -0.4761 H       
@<TRIPOS>BOND
   1    1    2 1
   2    1    3 1
   3    1    4 1
   4    1   33 1
   5    2    3 1
   6    2    9 1
   7    2   10 1
   8    3    7 1
   9    3    8 1
  10    4    5 2
  11    4    6 am
  12    6   11 1
  13    6   34 1
  14    7   35 1
  15    7   36 1
  16    7   37 1
  17    8   38 1
  18    8   39 1
  19    8   40 1
  20    9   41 1
  21    9   42 1
  22    9   43 1
  23   10   44 1
  24   10   45 1
  25   10   46 1
  26   11   15 1
  27   11   47 1
  28   11   48 1
  29   12   13 1
  30   12   16 1
  31   13   14 2
  32   13   25 1
  33   14   15 1
  34   15   16 2
  35   16   19 1
  36   17   18 ar
  37   17   22 ar
  38   17   24 1
  39   18   19 ar
  40   18   49 1
  41   19   20 ar
  42   20   21 ar
  43   20   50 1
  44   21   22 ar
  45   21   23 1
  46   23   51 1
  47   23   52 1
  48   23   53 1
  49   24   54 1
  50   24   55 1
  51   24   56 1
  52   25   26 1
  53   25   30 1
  54   26   27 1
  55   26   57 1
  56   26   58 1
  57   27   28 1
  58   27   32 1
  59   27   59 1
  60   28   29 1
  61   29   30 1
  62   29   31 1
  63   29   60 1
  64   30   61 1
  65   30   62 1
  66   31   63 1
  67   31   64 1
  68   31   65 1
  69   32   66 1
  70   32   67 1
  71   32   68 1

#	End of record

