#	Name: ASD01812958
#	Creating user name:	WinNT
#	Creation time:	15. 06. 2019 19:29

#	Modifying user name:	WinNT
#	Modification time:	15. 06. 2019 19:29

#	Program:	/corina/corina34_cracker 3.40 0067  02.08.2006

@<TRIPOS>MOLECULE
ASD01812958
  46   49    0    0    0
SMALL
NO_CHARGES


@<TRIPOS>ATOM
   1 C1            -0.0166     1.3764     0.0096 C.ar    
   2 C2             0.0021    -0.0041     0.0020 C.ar    
   3 C3             1.2089    -0.6872    -0.0127 C.ar    
   4 C4             2.3941     0.0075    -0.0203 C.ar    
   5 C5             2.3941     1.4057    -0.0132 C.ar    
   6 C6             1.1719     2.0915     0.0021 C.ar    
   7 C7             3.8413    -0.4177    -0.0364 C.3     
   8 N8             4.6313     0.8189    -0.0378 N.am    
   9 C9             3.7915     1.8684    -0.0244 C.2     
  10 C10            6.0942     0.8968    -0.0511 C.3     
  11 C11            6.5825     0.9304    -1.4764 C.ar    
  12 O12            1.1515     3.4479     0.0091 O.3     
  13 O13            4.1370     3.0341    -0.0215 O.2     
  14 C14            6.7428     2.1415    -2.1236 C.ar    
  15 C15            7.1910     2.1728    -3.4306 C.ar    
  16 C16            7.4793     0.9921    -4.0912 C.ar    
  17 C17            7.3188    -0.2194    -3.4433 C.ar    
  18 C18            6.8755    -0.2495    -2.1345 C.ar    
  19 Br19           8.0920     1.0343    -5.8797 Br      
  20 C20           -0.1314     4.0773     0.0243 C.3     
  21 C21            0.0461     5.5969     0.0302 C.3     
  22 O22            0.6562     6.0119    -1.1956 O.3     
  23 C23            0.8192     7.4293    -1.3030 C.3     
  24 C24           -0.5491     8.1039    -1.1692 C.3     
  25 O25           -1.1592     7.6889     0.0566 O.3     
  26 C26           -1.3222     6.2715     0.1640 C.3     
  27 H27           -0.9604     1.9015     0.0169 H       
  28 H28           -0.9272    -0.5544     0.0079 H       
  29 H29            1.2170    -1.7672    -0.0179 H       
  30 H30            4.0688    -1.0067     0.8521 H       
  31 H31            4.0515    -0.9977    -0.9350 H       
  32 H32            6.4145     1.8024     0.4641 H       
  33 H33            6.5091     0.0250     0.4546 H       
  34 H34            6.5174     3.0632    -1.6078 H       
  35 H35            7.3159     3.1189    -3.9363 H       
  36 H36            7.5434    -1.1415    -3.9587 H       
  37 H37            6.7541    -1.1951    -1.6271 H       
  38 H38           -0.6922     3.7805    -0.8620 H       
  39 H39           -0.6756     3.7715     0.9178 H       
  40 H40            0.6796     5.8864     0.8687 H       
  41 H41            1.4781     7.7814    -0.5093 H       
  42 H42            1.2526     7.6737    -2.2728 H       
  43 H43           -0.4226     9.1865    -1.1650 H       
  44 H44           -1.1820     7.8134    -2.0078 H       
  45 H45           -1.9811     5.9194    -0.6297 H       
  46 H46           -1.7556     6.0271     1.1338 H       
@<TRIPOS>BOND
   1    1    2 ar
   2    1    6 ar
   3    1   27 1
   4    2    3 ar
   5    2   28 1
   6    3    4 ar
   7    3   29 1
   8    4    7 1
   9    4    5 ar
  10    5    6 ar
  11    5    9 1
  12    6   12 1
  13    7    8 1
  14    7   30 1
  15    7   31 1
  16    8    9 am
  17    8   10 1
  18    9   13 2
  19   10   11 1
  20   10   32 1
  21   10   33 1
  22   11   14 ar
  23   11   18 ar
  24   12   20 1
  25   14   15 ar
  26   14   34 1
  27   15   16 ar
  28   15   35 1
  29   16   17 ar
  30   16   19 1
  31   17   18 ar
  32   17   36 1
  33   18   37 1
  34   20   21 1
  35   20   38 1
  36   20   39 1
  37   21   22 1
  38   21   26 1
  39   21   40 1
  40   22   23 1
  41   23   24 1
  42   23   41 1
  43   23   42 1
  44   24   25 1
  45   24   43 1
  46   24   44 1
  47   25   26 1
  48   26   45 1
  49   26   46 1

#	End of record

