#	Name: ASD01840482
#	Creating user name:	WinNT
#	Creation time:	15. 06. 2019 19:37

#	Modifying user name:	WinNT
#	Modification time:	15. 06. 2019 19:37

#	Program:	/corina/corina34_cracker 3.40 0067  02.08.2006

@<TRIPOS>MOLECULE
ASD01840482
  39   41    0    0    0
SMALL
NO_CHARGES


@<TRIPOS>ATOM
   1 C1             0.2611     1.7552    -0.9980 C.ar    
   2 C2             0.3841     0.5320    -1.6195 C.ar    
   3 N3             1.4990    -0.1677    -1.4965 N.ar    
   4 N4             2.4999     0.2427    -0.8111 N.ar    
   5 C5             1.3546     2.2267    -0.2364 C.ar    
   6 C6             1.5104     3.4570     0.5171 C.2     
   7 C7             2.4928     1.4121    -0.1670 C.ar    
   8 S8             3.7250     2.1824     0.8223 S.3     
   9 C9             2.7118     3.5783     1.1344 C.2     
  10 C10           -0.9999     2.5697    -1.1313 C.3     
  11 C11           -0.7562    -0.0106    -2.4419 C.3     
  12 N12            0.5179     4.4243     0.5985 N.pl3   
  13 C13            3.1102     4.7236     1.9514 C.2     
  14 O14            2.3404     5.6527     2.1138 O.2     
  15 N15            4.3297     4.7507     2.5248 N.am    
  16 C16            5.0757     5.6831     3.3831 C.3     
  17 C17            5.4973     3.8578     2.5728 C.3     
  18 C18            6.3699     5.1042     2.7947 C.3     
  19 O19            6.8036     5.7427     1.5921 O.3     
  20 C20            7.4909     4.9077     3.8171 C.3     
  21 C21            8.0087     5.2004     1.0481 C.3     
  22 H22           -1.6441     2.3852    -0.2716 H       
  23 H23           -0.7456     3.6287    -1.1742 H       
  24 H24           -1.5220     2.2841    -2.0445 H       
  25 H25           -0.6493     0.3210    -3.4747 H       
  26 H26           -0.7433    -1.1000    -2.4068 H       
  27 H27           -1.7008     0.3547    -2.0389 H       
  28 H28           -0.4028     4.1923     0.4002 H       
  29 H29            0.7452     5.3322     0.8537 H       
  30 H30            4.9141     6.7308     3.1292 H       
  31 H31            4.9558     5.4836     4.4479 H       
  32 H32            5.4885     3.1771     3.4240 H       
  33 H33            5.6948     3.3503     1.6286 H       
  34 H34            7.1575     4.2200     4.5943 H       
  35 H35            8.3686     4.4954     3.3193 H       
  36 H36            7.7455     5.8677     4.2663 H       
  37 H37            8.8140     5.3031     1.7754 H       
  38 H38            7.8604     4.1456     0.8168 H       
  39 H39            8.2707     5.7387     0.1373 H       
@<TRIPOS>BOND
   1    1    2 ar
   2    1    5 ar
   3    1   10 1
   4    2   11 1
   5    2    3 ar
   6    3    4 ar
   7    4    7 ar
   8    5    7 ar
   9    5    6 1
  10    6    9 2
  11    6   12 1
  12    7    8 1
  13    8    9 1
  14    9   13 1
  15   10   22 1
  16   10   23 1
  17   10   24 1
  18   11   25 1
  19   11   26 1
  20   11   27 1
  21   12   28 1
  22   12   29 1
  23   13   14 2
  24   13   15 am
  25   15   16 1
  26   15   17 1
  27   16   18 1
  28   16   30 1
  29   16   31 1
  30   17   18 1
  31   17   32 1
  32   17   33 1
  33   18   19 1
  34   18   20 1
  35   19   21 1
  36   20   34 1
  37   20   35 1
  38   20   36 1
  39   21   37 1
  40   21   38 1
  41   21   39 1

#	End of record

