#	Name: ASD04880698
#	Creating user name:	WinNT
#	Creation time:	15. 06. 2019 20:53

#	Modifying user name:	WinNT
#	Modification time:	15. 06. 2019 20:53

#	Program:	/corina/corina34_cracker 3.40 0067  02.08.2006

@<TRIPOS>MOLECULE
ASD04880698
  52   54    0    0    0
SMALL
NO_CHARGES


@<TRIPOS>ATOM
   1 C1            -0.3806     1.8142     1.2354 C.ar    
   2 C2            -0.4583     0.4875     1.6032 C.ar    
   3 C3             0.6999    -0.2443     1.8216 C.ar    
   4 C4             1.9473     0.3575     1.6701 C.ar    
   5 C5             2.0332     1.6869     1.3013 C.ar    
   6 C6             0.8669     2.4243     1.0816 C.ar    
   7 O7             0.6176    -1.5516     2.1848 O.3     
   8 C8            -0.6926    -2.1054     2.3226 C.3     
   9 N9             2.0459     4.5023     0.5185 N.2     
  10 N10            1.8567     5.8316     0.1460 N.am    
  11 C11            0.4126     6.0989     0.0535 C.3     
  12 C12           -0.2297     4.7469     0.4219 C.3     
  13 C13            0.9524     3.8426     0.6885 C.2     
  14 C14            2.8364     6.7265    -0.0905 C.2     
  15 C15            4.2802     6.3156     0.0420 C.3     
  16 O16            2.5559     7.8627    -0.4099 O.2     
  17 C17            4.7653     5.7549    -1.2700 C.ar    
  18 C18            4.9868     4.3967    -1.4015 C.ar    
  19 C19            5.4318     3.8823    -2.6050 C.ar    
  20 C20            5.6549     4.7260    -3.6770 C.ar    
  21 C21            5.4325     6.0841    -3.5458 C.ar    
  22 C22            4.9834     6.5979    -2.3436 C.ar    
  23 O23            3.0804    -0.3629     1.8856 O.3     
  24 C24            4.3248     0.3178     1.7121 C.3     
  25 N25            5.0911     7.4859     0.4040 N.3     
  26 C26            4.6648     8.0428     1.6948 C.3     
  27 C27            6.5211     7.1503     0.4220 C.3     
  28 H28           -1.2838     2.3803     1.0620 H       
  29 H29           -1.4232     0.0170     1.7217 H       
  30 H30            2.9996     2.1547     1.1839 H       
  31 H31           -1.2415    -1.5541     3.0861 H       
  32 H32           -1.2200    -2.0318     1.3715 H       
  33 H33           -0.6155    -3.1525     2.6153 H       
  34 H34            0.1188     6.8699     0.7658 H       
  35 H35            0.1405     6.3890    -0.9613 H       
  36 H36           -0.8442     4.8467     1.3167 H       
  37 H37           -0.8226     4.3660    -0.4097 H       
  38 H38            4.3721     5.5558     0.8180 H       
  39 H39            4.8126     3.7376    -0.5639 H       
  40 H40            5.6055     2.8214    -2.7075 H       
  41 H41            6.0032     4.3243    -4.6170 H       
  42 H42            5.6071     6.7433    -4.3833 H       
  43 H43            4.8061     7.6584    -2.2422 H       
  44 H44            4.3776     1.1600     2.4020 H       
  45 H45            5.1463    -0.3696     1.9143 H       
  46 H46            4.3998     0.6822     0.6875 H       
  47 H47            4.8421     7.3108     2.4827 H       
  48 H48            5.2336     8.9484     1.9055 H       
  49 H49            3.6022     8.2824     1.6539 H       
  50 H50            6.8394     6.8623    -0.5799 H       
  51 H51            7.0938     8.0179     0.7498 H       
  52 H52            6.6913     6.3217     1.1095 H       
@<TRIPOS>BOND
   1    1    2 ar
   2    1    6 ar
   3    1   28 1
   4    2    3 ar
   5    2   29 1
   6    3    4 ar
   7    3    7 1
   8    4    5 ar
   9    4   23 1
  10    5    6 ar
  11    5   30 1
  12    6   13 1
  13    7    8 1
  14    8   31 1
  15    8   32 1
  16    8   33 1
  17    9   10 1
  18    9   13 2
  19   10   11 1
  20   10   14 am
  21   11   12 1
  22   11   34 1
  23   11   35 1
  24   12   13 1
  25   12   36 1
  26   12   37 1
  27   14   16 2
  28   14   15 1
  29   15   17 1
  30   15   25 1
  31   15   38 1
  32   17   18 ar
  33   17   22 ar
  34   18   19 ar
  35   18   39 1
  36   19   20 ar
  37   19   40 1
  38   20   21 ar
  39   20   41 1
  40   21   22 ar
  41   21   42 1
  42   22   43 1
  43   23   24 1
  44   24   44 1
  45   24   45 1
  46   24   46 1
  47   25   26 1
  48   25   27 1
  49   26   47 1
  50   26   48 1
  51   26   49 1
  52   27   50 1
  53   27   51 1
  54   27   52 1

#	End of record

