#	Name: ASD01883170
#	Creating user name:	WinNT
#	Creation time:	15. 06. 2019 19:45

#	Modifying user name:	WinNT
#	Modification time:	15. 06. 2019 19:45

#	Program:	/corina/corina34_cracker 3.40 0067  02.08.2006

@<TRIPOS>MOLECULE
ASD01883170
  52   54    0    0    0
SMALL
NO_CHARGES


@<TRIPOS>ATOM
   1 N1            -0.7620     2.4472    -0.3898 N.am    
   2 C2            -0.5727     1.1486    -0.6883 C.2     
   3 C3            -1.6603     0.2430    -0.6244 C.2     
   4 C4            -2.9237     0.7312    -0.2463 C.2     
   5 C5            -3.0572     2.1012     0.0538 C.2     
   6 C6            -1.9812     2.9168    -0.0198 C.2     
   7 O7             0.5334     0.7521    -1.0136 O.2     
   8 C8            -1.4769    -1.1419    -0.9391 C.1     
   9 N9            -1.3313    -2.2406    -1.1887 N.1     
  10 C10            0.3720     3.3721    -0.4597 C.3     
  11 C11            0.4590     3.9670    -1.8666 C.3     
  12 C12            1.6433     4.9329    -1.9396 C.3     
  13 C13            1.8064     5.4321    -3.3767 C.3     
  14 C14            1.3889     6.1228    -1.0121 C.3     
  15 C15           -4.0882    -0.1747    -0.1659 C.ar    
  16 C16           -4.7010    -0.4198     1.0653 C.ar    
  17 C17           -5.7872    -1.2657     1.1359 C.ar    
  18 C18           -6.2724    -1.8742    -0.0163 C.ar    
  19 C19           -5.6650    -1.6324    -1.2424 C.ar    
  20 C20           -4.5828    -0.7839    -1.3218 C.ar    
  21 O21           -7.3423    -2.7072     0.0569 O.3     
  22 Cl22          -6.5497    -1.5719     2.6652 Cl      
  23 C23           -7.7126    -3.3943    -1.1401 C.3     
  24 C24           -8.4805    -4.6817    -0.7929 C.3     
  25 C25           -9.8791    -4.5459    -1.4294 C.3     
  26 C26           -9.6747    -3.5327    -2.5830 C.3     
  27 C27           -8.6714    -2.5210    -1.9756 C.3     
  28 H28           -4.0177     2.4990     0.3464 H       
  29 H29           -2.0956     3.9653     0.2129 H       
  30 H30            0.2324     4.1736     0.2657 H       
  31 H31            1.2933     2.8349    -0.2347 H       
  32 H32            0.5986     3.1654    -2.5920 H       
  33 H33           -0.4624     4.5041    -2.0916 H       
  34 H34            2.5521     4.4176    -1.6287 H       
  35 H35            0.8976     5.9474    -3.6876 H       
  36 H36            2.6501     6.1202    -3.4287 H       
  37 H37            1.9877     4.5844    -4.0374 H       
  38 H38            0.4801     6.6380    -1.3231 H       
  39 H39            1.2727     5.7671     0.0116 H       
  40 H40            2.2326     6.8109    -1.0641 H       
  41 H41           -4.3241     0.0525     1.9605 H       
  42 H42           -6.0448    -2.1069    -2.1351 H       
  43 H43           -4.1118    -0.5964    -2.2754 H       
  44 H44           -6.8232    -3.6355    -1.7223 H       
  45 H45           -7.9642    -5.5477    -1.2072 H       
  46 H46           -8.5706    -4.7824     0.2887 H       
  47 H47          -10.2153    -5.5063    -1.8202 H       
  48 H48          -10.5929    -4.1577    -0.7027 H       
  49 H49           -9.2468    -4.0237    -3.4570 H       
  50 H50          -10.6139    -3.0408    -2.8360 H       
  51 H51           -9.1901    -1.8059    -1.3371 H       
  52 H52           -8.1262    -2.0037    -2.7650 H       
@<TRIPOS>BOND
   1    1    2 am
   2    1   10 1
   3    1    6 1
   4    2    3 1
   5    2    7 2
   6    3    4 2
   7    3    8 1
   8    4    5 1
   9    4   15 1
  10    5    6 2
  11    5   28 1
  12    6   29 1
  13    8    9 3
  14   10   11 1
  15   10   30 1
  16   10   31 1
  17   11   12 1
  18   11   32 1
  19   11   33 1
  20   12   13 1
  21   12   14 1
  22   12   34 1
  23   13   35 1
  24   13   36 1
  25   13   37 1
  26   14   38 1
  27   14   39 1
  28   14   40 1
  29   15   16 ar
  30   15   20 ar
  31   16   17 ar
  32   16   41 1
  33   17   18 ar
  34   17   22 1
  35   18   19 ar
  36   18   21 1
  37   19   20 ar
  38   19   42 1
  39   20   43 1
  40   21   23 1
  41   23   24 1
  42   23   27 1
  43   23   44 1
  44   24   25 1
  45   24   45 1
  46   24   46 1
  47   25   26 1
  48   25   47 1
  49   25   48 1
  50   26   27 1
  51   26   49 1
  52   26   50 1
  53   27   51 1
  54   27   52 1

#	End of record

