#	Name: ASD03082433
#	Creating user name:	WinNT
#	Creation time:	15. 06. 2019 20:27

#	Modifying user name:	WinNT
#	Modification time:	15. 06. 2019 20:27

#	Program:	/corina/corina34_cracker 3.40 0067  02.08.2006

@<TRIPOS>MOLECULE
ASD03082433
  53   57    0    0    0
SMALL
NO_CHARGES


@<TRIPOS>ATOM
   1 C1             1.1671     3.5000     0.0203 C.ar    
   2 C2             0.0640     4.1868    -0.4701 C.ar    
   3 C3             0.0452     5.5683    -0.4535 C.ar    
   4 C4             1.1259     6.2724     0.0525 C.ar    
   5 C5             2.2334     5.5867     0.5453 C.ar    
   6 N6             1.1853     2.1009     0.0020 N.pl3   
   7 C7             2.4004     1.4188    -0.1188 C.2     
   8 C8             2.5751     0.0263    -0.0419 C.2     
   9 N9             3.5737     1.9681    -0.3293 N.2     
  10 N10            4.5311     0.9471    -0.3869 N.pl3   
  11 C11            3.8905    -0.2376    -0.2073 C.2     
  12 C12            5.9030     1.1168    -0.5963 C.ar    
  13 C13            6.8297     0.2862     0.0303 C.ar    
  14 C14            6.3787     2.1177    -1.4417 C.ar    
  15 C15            7.7398     2.2524    -1.6218 C.ar    
  16 N16            8.5864     1.4490    -1.0058 N.ar    
  17 C17            8.1751     0.4866    -0.2025 C.ar    
  18 C18            8.2665     3.3304    -2.5337 C.3     
  19 H19            8.9007    -0.1493     0.2829 H       
  20 C20            2.2542     4.2021     0.5232 C.ar    
  21 O21            1.3513     7.6138     0.1803 O.3     
  22 C22            2.4287     7.7337     1.1278 C.3     
  23 O23            3.1521     6.4974     0.9814 O.3     
  24 F24            3.2465     8.8226     0.8071 F       
  25 F25            1.9281     7.8594     2.4281 F       
  26 C26            4.5317    -1.6013    -0.1942 C.3     
  27 O27            3.5295    -2.5968     0.0220 O.3     
  28 C28            4.0347    -3.9332     0.0521 C.3     
  29 C29            2.8980    -4.8948     0.2846 C.ar    
  30 C30            2.2104    -5.4253    -0.7909 C.ar    
  31 C31            1.1677    -6.3074    -0.5776 C.ar    
  32 C32            0.8127    -6.6593     0.7112 C.ar    
  33 C33            1.5008    -6.1295     1.7867 C.ar    
  34 C34            2.5464    -5.2508     1.5733 C.ar    
  35 H35           -0.7798     3.6405    -0.8651 H       
  36 H36           -0.8133     6.1003    -0.8359 H       
  37 H37            0.3552     1.6041     0.0732 H       
  38 H38            1.7961    -0.7038     0.1209 H       
  39 H39            6.4998    -0.5033     0.6893 H       
  40 H40            5.6912     2.7783    -1.9491 H       
  41 H41            8.4340     4.2419    -1.9600 H       
  42 H42            9.2064     3.0030    -2.9782 H       
  43 H43            7.5402     3.5259    -3.3226 H       
  44 H44            3.1119     3.6685     0.9053 H       
  45 H45            5.0223    -1.7813    -1.1508 H       
  46 H46            5.2693    -1.6483     0.6070 H       
  47 H47            4.5150    -4.1616    -0.8994 H       
  48 H48            4.7620    -4.0286     0.8584 H       
  49 H49            2.4878    -5.1504    -1.7978 H       
  50 H50            0.6301    -6.7213    -1.4179 H       
  51 H51           -0.0024    -7.3479     0.8779 H       
  52 H52            1.2233    -6.4041     2.7937 H       
  53 H53            3.0840    -4.8369     2.4135 H       
@<TRIPOS>BOND
   1    1    2 ar
   2    1    6 1
   3    1   20 ar
   4    2    3 ar
   5    2   35 1
   6    3    4 ar
   7    3   36 1
   8    4    5 ar
   9    4   21 1
  10    5   20 ar
  11    5   23 1
  12    6    7 1
  13    6   37 1
  14    7    8 1
  15    7    9 2
  16    8   11 2
  17    8   38 1
  18    9   10 1
  19   10   11 1
  20   10   12 1
  21   11   26 1
  22   12   13 ar
  23   12   14 ar
  24   13   17 ar
  25   13   39 1
  26   14   15 ar
  27   14   40 1
  28   15   16 ar
  29   15   18 1
  30   16   17 ar
  31   17   19 1
  32   18   41 1
  33   18   42 1
  34   18   43 1
  35   20   44 1
  36   21   22 1
  37   22   23 1
  38   22   24 1
  39   22   25 1
  40   26   27 1
  41   26   45 1
  42   26   46 1
  43   27   28 1
  44   28   29 1
  45   28   47 1
  46   28   48 1
  47   29   30 ar
  48   29   34 ar
  49   30   31 ar
  50   30   49 1
  51   31   32 ar
  52   31   50 1
  53   32   33 ar
  54   32   51 1
  55   33   34 ar
  56   33   52 1
  57   34   53 1

#	End of record

