#	Name: ASD09116163
#	Creating user name:	WinNT
#	Creation time:	15. 06. 2019 21:20

#	Modifying user name:	WinNT
#	Modification time:	15. 06. 2019 21:20

#	Program:	/corina/corina34_cracker 3.40 0067  02.08.2006

@<TRIPOS>MOLECULE
ASD09116163
  88   95    0    0    0
SMALL
NO_CHARGES


@<TRIPOS>ATOM
   1 N1            -0.5873     3.8158     0.5776 N.2     
   2 C2            -1.2085     4.9851     1.2246 C.3     
   3 C3             0.6959     4.0529     0.5416 C.2     
   4 N4             1.0235     5.2425     1.0861 N.2     
   5 C5            -0.0265     5.8857     1.5261 C.2     
   6 N6             1.6191     3.1791     0.0037 N.pl3   
   7 C7             2.9641     3.5574    -0.0999 C.ar    
   8 C8             3.9640     2.5988    -0.0053 C.ar    
   9 C9             3.2968     4.8904    -0.3028 C.ar    
  10 C10            4.6221     5.2632    -0.4048 C.ar    
  11 C11            5.6228     4.3051    -0.3046 C.ar    
  12 C12            5.2898     2.9716    -0.1074 C.ar    
  13 N13           -0.0529     7.1057     2.1267 N.pl3   
  14 C14           -2.1689     5.6656     0.2836 C.ar    
  15 C15           -2.4499     5.0840    -0.9356 C.ar    
  16 N16           -2.7312     6.8058     0.6426 N.ar    
  17 C17           -3.5749     7.4384    -0.1419 C.ar    
  18 C18           -3.9056     6.9239    -1.3859 C.ar    
  19 C19           -3.3434     5.7244    -1.8034 C.ar    
  20 C20           -4.3516     8.7470     0.0284 C.3     
  21 C21           -5.8379     8.2947     0.1859 C.3     
  22 C22           -6.2046     7.7194    -1.2032 C.3     
  23 C23           -4.8958     7.8873    -2.0389 C.3     
  24 C24           -4.3676     9.2520    -1.4611 C.3     
  25 C25           -3.6739     5.1436    -3.1281 C.ar    
  26 C26           -2.6550     4.7332    -3.9856 C.ar    
  27 C27            4.9831     6.7096    -0.6255 C.3     
  28 N28            6.9662     4.6829    -0.4084 N.3     
  29 C29            7.7051     4.3405     0.8135 C.3     
  30 C30            9.1282     4.8960     0.7232 C.3     
  31 C31            9.8268     4.3000    -0.5020 C.3     
  32 C32            9.0115     4.6298    -1.7554 C.3     
  33 C33            7.5917     4.0820    -1.5933 C.3     
  34 N34           11.1732     4.8740    -0.6271 N.3     
  35 C35           11.9172     4.2378    -1.7232 C.3     
  36 C36           13.2811     4.9162    -1.8715 C.3     
  37 N37           14.0194     4.8082    -0.6055 N.3     
  38 C38           13.2754     5.4444     0.4906 C.3     
  39 C39           11.9115     4.7660     0.6390 C.3     
  40 C40           15.3658     5.3823    -0.7305 C.3     
  41 C41           -2.9682     4.1932    -5.2165 C.ar    
  42 C42           -4.2906     4.0589    -5.5995 C.ar    
  43 C43           -5.3060     4.4651    -4.7525 C.ar    
  44 C44           -5.0044     5.0012    -3.5169 C.ar    
  45 H45           -1.7157     4.6916     2.1437 H       
  46 H46            1.3367     2.3032    -0.3027 H       
  47 H47            3.7050     1.5617     0.1484 H       
  48 H48            2.5188     5.6353    -0.3811 H       
  49 H49            6.0678     2.2266    -0.0290 H       
  50 H50            0.7729     7.5946     2.2683 H       
  51 H51           -0.8975     7.4869     2.4135 H       
  52 H52           -1.9877     4.1493    -1.2166 H       
  53 H53           -3.9752     9.4357     0.7848 H       
  54 H54           -5.9237     7.5249     0.9529 H       
  55 H55           -6.4732     9.1471     0.4262 H       
  56 H56           -6.4736     6.6662    -1.1218 H       
  57 H57           -7.0191     8.2895    -1.6500 H       
  58 H58           -5.0017     7.8102    -3.1210 H       
  59 H59           -5.0731    10.0685    -1.6149 H       
  60 H60           -3.3706     9.4990    -1.8262 H       
  61 H61           -1.6222     4.8379    -3.6877 H       
  62 H62            5.1074     7.2041     0.3379 H       
  63 H63            5.9150     6.7698    -1.1877 H       
  64 H64            4.1881     7.2011    -1.1863 H       
  65 H65            7.2001     4.7739     1.6768 H       
  66 H66            7.7446     3.2566     0.9223 H       
  67 H67            9.0899     5.9812     0.6282 H       
  68 H68            9.6812     4.6282     1.6236 H       
  69 H69            9.9000     3.2183    -0.3893 H       
  70 H70            8.9713     5.7108    -1.8894 H       
  71 H71            9.4810     4.1718    -2.6260 H       
  72 H72            7.6317     2.9993    -1.4732 H       
  73 H73            7.0044     4.3276    -2.4781 H       
  74 H74           12.0594     3.1803    -1.5004 H       
  75 H75           11.3563     4.3420    -2.6519 H       
  76 H76           13.8462     4.4270    -2.6649 H       
  77 H77           13.1390     5.9677    -2.1211 H       
  78 H78           13.8363     5.3403     1.4194 H       
  79 H79           13.1332     6.5019     0.2679 H       
  80 H80           11.3463     5.2552     1.4323 H       
  81 H81           12.0536     3.7145     0.8885 H       
  82 H82           15.2881     6.4353    -1.0011 H       
  83 H83           15.8902     5.2892     0.2205 H       
  84 H84           15.9180     4.8482    -1.5038 H       
  85 H85           -2.1794     3.8751    -5.8820 H       
  86 H86           -4.5311     3.6358    -6.5636 H       
  87 H87           -6.3367     4.3583    -5.0567 H       
  88 H88           -5.7980     5.3179    -2.8564 H       
@<TRIPOS>BOND
   1    1    2 1
   2    1    3 2
   3    2   14 1
   4    2    5 1
   5    2   45 1
   6    3    4 1
   7    3    6 1
   8    4    5 2
   9    5   13 1
  10    6    7 1
  11    6   46 1
  12    7    8 ar
  13    7    9 ar
  14    8   12 ar
  15    8   47 1
  16    9   10 ar
  17    9   48 1
  18   10   11 ar
  19   10   27 1
  20   11   12 ar
  21   11   28 1
  22   12   49 1
  23   13   50 1
  24   13   51 1
  25   14   15 ar
  26   14   16 ar
  27   15   19 ar
  28   15   52 1
  29   16   17 ar
  30   17   18 ar
  31   17   20 1
  32   18   19 ar
  33   18   23 1
  34   19   25 1
  35   20   21 1
  36   20   24 1
  37   20   53 1
  38   21   22 1
  39   21   54 1
  40   21   55 1
  41   22   23 1
  42   22   56 1
  43   22   57 1
  44   23   24 1
  45   23   58 1
  46   24   59 1
  47   24   60 1
  48   25   26 ar
  49   25   44 ar
  50   26   41 ar
  51   26   61 1
  52   27   62 1
  53   27   63 1
  54   27   64 1
  55   28   29 1
  56   28   33 1
  57   29   30 1
  58   29   65 1
  59   29   66 1
  60   30   31 1
  61   30   67 1
  62   30   68 1
  63   31   32 1
  64   31   34 1
  65   31   69 1
  66   32   33 1
  67   32   70 1
  68   32   71 1
  69   33   72 1
  70   33   73 1
  71   34   35 1
  72   34   39 1
  73   35   36 1
  74   35   74 1
  75   35   75 1
  76   36   37 1
  77   36   76 1
  78   36   77 1
  79   37   38 1
  80   37   40 1
  81   38   39 1
  82   38   78 1
  83   38   79 1
  84   39   80 1
  85   39   81 1
  86   40   82 1
  87   40   83 1
  88   40   84 1
  89   41   42 ar
  90   41   85 1
  91   42   43 ar
  92   42   86 1
  93   43   44 ar
  94   43   87 1
  95   44   88 1

#	End of record

