#	Name: ASD00431011
#	Creating user name:	WinNT
#	Creation time:	15. 06. 2019 18:35

#	Modifying user name:	WinNT
#	Modification time:	15. 06. 2019 18:35

#	Program:	/corina/corina34_cracker 3.40 0067  02.08.2006

@<TRIPOS>MOLECULE
ASD00431011
  17   17    0    0    0
SMALL
NO_CHARGES


@<TRIPOS>ATOM
   1 C1            -0.0167     1.3778     0.0096 C.ar    
   2 C2             0.0021    -0.0041     0.0020 C.ar    
   3 C3             1.2107    -0.6794    -0.0131 C.ar    
   4 C4             2.3993     0.0307    -0.0206 C.ar    
   5 C5             2.3781     1.4125    -0.0130 C.ar    
   6 C6             1.1707     2.0857     0.0021 C.ar    
   7 C7             1.1489     3.5926     0.0099 C.3     
   8 N8             1.1284     4.0891    -1.3725 N.3     
   9 F9             1.2302    -2.0303    -0.0201 F       
  10 H10           -0.9593     1.9048     0.0169 H       
  11 H11           -0.9257    -0.5570     0.0082 H       
  12 H12            3.3426    -0.4950    -0.0321 H       
  13 H13            3.3051     1.9666    -0.0185 H       
  14 H14            0.2588     3.9404     0.5341 H       
  15 H15            2.0385     3.9662     0.5170 H       
  16 H16            0.3476     3.7050    -1.8832 H       
  17 H17            1.1136     5.0978    -1.3942 H       
@<TRIPOS>BOND
   1    1    2 ar
   2    1    6 ar
   3    1   10 1
   4    2    3 ar
   5    2   11 1
   6    3    4 ar
   7    3    9 1
   8    4    5 ar
   9    4   12 1
  10    5    6 ar
  11    5   13 1
  12    6    7 1
  13    7    8 1
  14    7   14 1
  15    7   15 1
  16    8   16 1
  17    8   17 1

#	End of record

