#	Name: ASD05940017
#	Creating user name:	WinNT
#	Creation time:	15. 06. 2019 21:04

#	Modifying user name:	WinNT
#	Modification time:	15. 06. 2019 21:04

#	Program:	/corina/corina34_cracker 3.40 0067  02.08.2006

@<TRIPOS>MOLECULE
ASD05940017
  58   62    0    0    0
SMALL
NO_CHARGES


@<TRIPOS>ATOM
   1 N1            -0.0159     1.3181     0.0093 N.ar    
   2 C2             0.0021    -0.0041     0.0020 C.ar    
   3 N3             1.1319    -0.6930    -0.0101 N.ar    
   4 C4             2.3066    -0.0681    -0.0158 C.ar    
   5 C5             2.3274     1.3257    -0.0126 C.ar    
   6 C6             1.1197     2.0168     0.0022 C.ar    
   7 N7             3.4912    -0.7843    -0.0194 N.3     
   8 C8             4.5325    -0.1239    -0.8126 C.3     
   9 C9             4.6626     1.3202    -0.4024 C.2     
  10 N10            3.5574     2.0048    -0.0283 N.am    
  11 N11            1.0976     3.4049     0.0085 N.pl3   
  12 O12           -1.1750    -0.6756     0.0076 O.3     
  13 C13            3.2722    -2.1617    -0.4807 C.3     
  14 O14            5.7473     1.8634    -0.4080 O.2     
  15 C15           -2.3694     0.1089     0.0211 C.3     
  16 C16           -3.5029    -0.6442    -0.6970 C.3     
  17 C17            4.6022    -2.8335    -0.7061 C.ar    
  18 C18            5.2290    -3.5289     0.3192 C.ar    
  19 C19            6.4472    -4.1332     0.0804 C.ar    
  20 N20            7.0193    -4.0569    -1.1061 N.ar    
  21 C21            6.4534    -3.4032    -2.1091 C.ar    
  22 C22            5.2234    -2.7760    -1.9408 C.ar    
  23 N23            7.0917    -3.3482    -3.3428 N.3     
  24 C24           -2.8391     0.3313     1.4736 C.3     
  25 C25           -4.3842     0.2669     1.3872 C.3     
  26 C26           -4.6219    -0.8532     0.3442 C.3     
  27 C27            8.3683    -4.0763    -3.3084 C.3     
  28 C28            9.0073    -4.0411    -4.6993 C.3     
  29 O29            9.1708    -2.6807    -5.1089 O.3     
  30 C30            7.9471    -1.9420    -5.1541 C.3     
  31 C31            7.2973    -1.9559    -3.7679 C.3     
  32 H32            5.4840    -0.6315    -0.6537 H       
  33 H33            4.2697    -0.1768    -1.8692 H       
  34 H34            3.6126     2.9403     0.2223 H       
  35 H35            1.9298     3.9032     0.0026 H       
  36 H36            0.2500     3.8765     0.0188 H       
  37 H37            2.7102    -2.7125     0.2736 H       
  38 H38            2.7096    -2.1471    -1.4142 H       
  39 H39           -2.1914     1.0679    -0.4655 H       
  40 H40           -3.8756    -0.0504    -1.5316 H       
  41 H41           -3.1420    -1.6081    -1.0558 H       
  42 H42            4.7685    -3.5961     1.2938 H       
  43 H43            6.9382    -4.6752     0.8751 H       
  44 H44            4.7638    -2.2435    -2.7604 H       
  45 H45           -2.4600    -0.4584     2.1222 H       
  46 H46           -2.5175     1.3088     1.8331 H       
  47 H47           -4.8140    -0.0054     2.3511 H       
  48 H48           -4.7913     1.2149     1.0355 H       
  49 H49           -5.6013    -0.7402    -0.1206 H       
  50 H50           -4.5307    -1.8342     0.8104 H       
  51 H51            9.0372    -3.6046    -2.5886 H       
  52 H52            8.1894    -5.1111    -3.0162 H       
  53 H53            9.9807    -4.5305    -4.6651 H       
  54 H54            8.3631    -4.5601    -5.4090 H       
  55 H55            8.1536    -0.9132    -5.4489 H       
  56 H56            7.2720    -2.3999    -5.8771 H       
  57 H57            6.3366    -1.4428    -3.8111 H       
  58 H58            7.9491    -1.4503    -3.0554 H       
@<TRIPOS>BOND
   1    1    2 ar
   2    1    6 ar
   3    2    3 ar
   4    2   12 1
   5    3    4 ar
   6    4    5 ar
   7    4    7 1
   8    5    6 ar
   9    5   10 1
  10    6   11 1
  11    7    8 1
  12    7   13 1
  13    8    9 1
  14    8   32 1
  15    8   33 1
  16    9   10 am
  17    9   14 2
  18   10   34 1
  19   11   35 1
  20   11   36 1
  21   12   15 1
  22   13   17 1
  23   13   37 1
  24   13   38 1
  25   15   16 1
  26   15   24 1
  27   15   39 1
  28   16   26 1
  29   16   40 1
  30   16   41 1
  31   17   18 ar
  32   17   22 ar
  33   18   19 ar
  34   18   42 1
  35   19   20 ar
  36   19   43 1
  37   20   21 ar
  38   21   22 ar
  39   21   23 1
  40   22   44 1
  41   23   27 1
  42   23   31 1
  43   24   25 1
  44   24   45 1
  45   24   46 1
  46   25   26 1
  47   25   47 1
  48   25   48 1
  49   26   49 1
  50   26   50 1
  51   27   28 1
  52   27   51 1
  53   27   52 1
  54   28   29 1
  55   28   53 1
  56   28   54 1
  57   29   30 1
  58   30   31 1
  59   30   55 1
  60   30   56 1
  61   31   57 1
  62   31   58 1

#	End of record

