#	Name: ASD01814680
#	Creating user name:	WinNT
#	Creation time:	15. 06. 2019 19:32

#	Modifying user name:	WinNT
#	Modification time:	15. 06. 2019 19:32

#	Program:	/corina/corina34_cracker 3.40 0067  02.08.2006

@<TRIPOS>MOLECULE
ASD01814680
  53   56    0    0    0
SMALL
NO_CHARGES


@<TRIPOS>ATOM
   1 N1             0.0196     1.3266    -0.5519 N.2     
   2 C2             0.0435     0.0256    -0.7215 C.2     
   3 C3             1.2613    -0.6382    -0.9290 C.2     
   4 C4             2.4135     0.0749    -0.9530 C.2     
   5 N5             2.3614     1.4275    -0.7739 N.pl3   
   6 C6             1.1521     2.0420    -0.5736 C.2     
   7 N7             3.3493     2.4173    -0.7463 N.2     
   8 C8             2.7768     3.5858    -0.5389 C.2     
   9 C9             1.4092     3.3994    -0.4245 C.2     
  10 C10            3.0795     5.0556    -0.3812 C.3     
  11 N11            1.8080     5.7526    -0.1642 N.am    
  12 C12            0.7525     4.7349    -0.1866 C.3     
  13 C13            1.6412     7.0769     0.0228 C.2     
  14 C14            2.8176     7.9610     0.1274 C.ar    
  15 C15            2.8901     8.9202     1.1470 C.ar    
  16 C16            3.8681     7.8434    -0.7856 C.ar    
  17 C17            4.9643     8.6724    -0.6824 C.ar    
  18 C18            5.0296     9.6228     0.3230 C.ar    
  19 C19            4.0006     9.7459     1.2358 C.ar    
  20 O20            0.5212     7.5429     0.1052 O.2     
  21 O21            1.8784     9.0403     2.0426 O.3     
  22 C22            2.0223    10.0398     3.0537 C.3     
  23 C23           -1.2431    -0.7585    -0.6926 C.3     
  24 C24            1.2885    -2.1324    -1.1232 C.3     
  25 C25            0.7921    10.0258     3.9634 C.3     
  26 N26            0.7318     8.7481     4.6857 N.3     
  27 C27            1.8583     8.6175     5.6194 C.3     
  28 C28           -0.5515     8.5988     5.3849 C.3     
  29 H29            3.3602    -0.4201    -1.1112 H       
  30 H30            3.7351     5.2078     0.4762 H       
  31 H31            3.5582     5.4332    -1.2847 H       
  32 H32            0.0509     4.9504    -0.9924 H       
  33 H33            0.2274     4.7235     0.7686 H       
  34 H34            3.8216     7.1035    -1.5710 H       
  35 H35            5.7762     8.5804    -1.3886 H       
  36 H36            5.8925    10.2680     0.3966 H       
  37 H37            4.0606    10.4866     2.0195 H       
  38 H38            2.9140     9.8324     3.6453 H       
  39 H39            2.1167    11.0195     2.5854 H       
  40 H40           -2.0786    -0.0798    -0.5212 H       
  41 H41           -1.3792    -1.2686    -1.6462 H       
  42 H42           -1.2022    -1.4944     0.1104 H       
  43 H43            1.1931    -2.3626    -2.1844 H       
  44 H44            2.2315    -2.5304    -0.7485 H       
  45 H45            0.4606    -2.5849    -0.5774 H       
  46 H46            0.8602    10.8450     4.6792 H       
  47 H47           -0.1076    10.1447     3.3596 H       
  48 H48            1.8255     9.4307     6.3444 H       
  49 H49            1.7892     7.6628     6.1409 H       
  50 H50            2.7962     8.6619     5.0657 H       
  51 H51           -1.3656     8.6296     4.6608 H       
  52 H52           -0.5695     7.6445     5.9114 H       
  53 H53           -0.6716     9.4113     6.1015 H       
@<TRIPOS>BOND
   1    1    2 2
   2    1    6 1
   3    2    3 1
   4    2   23 1
   5    3    4 2
   6    3   24 1
   7    4    5 1
   8    4   29 1
   9    5    7 1
  10    5    6 1
  11    6    9 2
  12    7    8 2
  13    8   10 1
  14    8    9 1
  15    9   12 1
  16   10   11 1
  17   10   30 1
  18   10   31 1
  19   11   12 1
  20   11   13 am
  21   12   32 1
  22   12   33 1
  23   13   14 1
  24   13   20 2
  25   14   16 ar
  26   14   15 ar
  27   15   19 ar
  28   15   21 1
  29   16   17 ar
  30   16   34 1
  31   17   18 ar
  32   17   35 1
  33   18   19 ar
  34   18   36 1
  35   19   37 1
  36   21   22 1
  37   22   25 1
  38   22   38 1
  39   22   39 1
  40   23   40 1
  41   23   41 1
  42   23   42 1
  43   24   43 1
  44   24   44 1
  45   24   45 1
  46   25   26 1
  47   25   46 1
  48   25   47 1
  49   26   27 1
  50   26   28 1
  51   27   48 1
  52   27   49 1
  53   27   50 1
  54   28   51 1
  55   28   52 1
  56   28   53 1

#	End of record

