#	Name: ASD03330438
#	Creating user name:	WinNT
#	Creation time:	15. 06. 2019 20:37

#	Modifying user name:	WinNT
#	Modification time:	15. 06. 2019 20:37

#	Program:	/corina/corina34_cracker 3.40 0067  02.08.2006

@<TRIPOS>MOLECULE
ASD03330438
  63   67    0    0    0
SMALL
NO_CHARGES


@<TRIPOS>ATOM
   1 C1            -0.4046     1.4065     0.0476 C.3     
   2 N2            -0.3091    -0.0599     0.0603 N.3     
   3 C3             0.2279    -0.5702    -1.2142 C.3     
   4 C4             1.4818     0.2023    -1.5330 C.2     
   5 N5             1.8219     1.3759    -0.9249 N.pl3   
   6 C6             1.0004     2.0201     0.1037 C.3     
   7 C7             2.4623    -0.0859    -2.4240 C.2     
   8 N8             3.3856     0.9008    -2.3527 N.2     
   9 C9             3.0064     1.7811    -1.4530 C.2     
  10 C10            3.7449     3.0065    -1.0787 C.ar    
  11 C11            2.5133    -1.2618    -3.3104 C.2     
  12 O12            1.6847    -2.1450    -3.1974 O.2     
  13 C13            3.6240    -2.5820    -5.0472 C.3     
  14 N14            3.4780    -1.3587    -4.2465 N.am    
  15 C15           -1.6103    -0.6696     0.3651 C.3     
  16 C16            3.8407     3.3851     0.2609 C.ar    
  17 C17            4.5310     4.5285     0.6044 C.ar    
  18 C18            5.1293     5.3020    -0.3767 C.ar    
  19 C19            5.0386     4.9338    -1.7076 C.ar    
  20 C20            4.3545     3.7869    -2.0645 C.ar    
  21 F21            4.2660     3.4276    -3.3638 F       
  22 Cl22           5.9962     6.7397     0.0651 Cl      
  23 C23            5.0698    -3.0756    -4.9343 C.3     
  24 C24            6.0228    -1.9462    -5.3326 C.3     
  25 C25            5.8406    -0.7628    -4.3794 C.3     
  26 C26            4.4035    -0.2430    -4.4861 C.3     
  27 C27            7.4449    -2.4387    -5.2554 C.2     
  28 O28            8.0456    -2.3947    -4.2027 O.2     
  29 N29            8.0493    -2.9279    -6.3562 N.am    
  30 C30            9.4007    -3.5058    -6.2848 C.3     
  31 C31            9.3751    -4.8806    -6.9626 C.3     
  32 O32            8.8083    -4.7509    -8.2686 O.3     
  33 C33            7.4501    -4.3047    -8.2755 C.3     
  34 C34            7.3749    -2.9056    -7.6639 C.3     
  35 H35           -0.9046     1.7291    -0.8657 H       
  36 H36           -0.9801     1.7396     0.9113 H       
  37 H37            0.4628    -1.6302    -1.1171 H       
  38 H38           -0.5056    -0.4258    -2.0074 H       
  39 H39            0.9420     3.0912    -0.0897 H       
  40 H40            1.4386     1.8465     1.0865 H       
  41 H41            2.9460    -3.3480    -4.6710 H       
  42 H42            3.3920    -2.3659    -6.0901 H       
  43 H43           -2.3531    -0.3177    -0.3508 H       
  44 H44           -1.5276    -1.7545     0.2992 H       
  45 H45           -1.9158    -0.3891     1.3731 H       
  46 H46            3.3747     2.7838     1.0276 H       
  47 H47            4.6050     4.8218     1.6412 H       
  48 H48            5.5066     5.5412    -2.4682 H       
  49 H49            5.2722    -3.3769    -3.9065 H       
  50 H50            5.2166    -3.9268    -5.5991 H       
  51 H51            5.8035    -1.6286    -6.3519 H       
  52 H52            6.0357    -1.0859    -3.3569 H       
  53 H53            6.5359     0.0321    -4.6493 H       
  54 H54            4.2351     0.1638    -5.4832 H       
  55 H55            4.2397     0.5343    -3.7396 H       
  56 H56           10.1061    -2.8549    -6.8014 H       
  57 H57            9.6982    -3.6162    -5.2420 H       
  58 H58           10.3916    -5.2656    -7.0435 H       
  59 H59            8.7709    -5.5675    -6.3700 H       
  60 H60            7.0817    -4.2754    -9.3009 H       
  61 H61            6.8389    -4.9895    -7.6877 H       
  62 H62            6.3317    -2.6166    -7.5357 H       
  63 H63            7.8765    -2.1918    -8.3173 H       
@<TRIPOS>BOND
   1    1    2 1
   2    1    6 1
   3    1   35 1
   4    1   36 1
   5    2    3 1
   6    2   15 1
   7    3    4 1
   8    3   37 1
   9    3   38 1
  10    4    5 1
  11    4    7 2
  12    5    6 1
  13    5    9 1
  14    6   39 1
  15    6   40 1
  16    7    8 1
  17    7   11 1
  18    8    9 2
  19    9   10 1
  20   10   16 ar
  21   10   20 ar
  22   11   12 2
  23   11   14 am
  24   13   14 1
  25   13   23 1
  26   13   41 1
  27   13   42 1
  28   14   26 1
  29   15   43 1
  30   15   44 1
  31   15   45 1
  32   16   17 ar
  33   16   46 1
  34   17   18 ar
  35   17   47 1
  36   18   19 ar
  37   18   22 1
  38   19   20 ar
  39   19   48 1
  40   20   21 1
  41   23   24 1
  42   23   49 1
  43   23   50 1
  44   24   25 1
  45   24   27 1
  46   24   51 1
  47   25   26 1
  48   25   52 1
  49   25   53 1
  50   26   54 1
  51   26   55 1
  52   27   28 2
  53   27   29 am
  54   29   30 1
  55   29   34 1
  56   30   31 1
  57   30   56 1
  58   30   57 1
  59   31   32 1
  60   31   58 1
  61   31   59 1
  62   32   33 1
  63   33   34 1
  64   33   60 1
  65   33   61 1
  66   34   62 1
  67   34   63 1

#	End of record

