#	Name: ASD01410837
#	Creating user name:	WinNT
#	Creation time:	15. 06. 2019 19:18

#	Modifying user name:	WinNT
#	Modification time:	15. 06. 2019 19:18

#	Program:	/corina/corina34_cracker 3.40 0067  02.08.2006

@<TRIPOS>MOLECULE
ASD01410837
 111  118    0    0    0
SMALL
NO_CHARGES


@<TRIPOS>ATOM
   1 C1            -0.0040     1.3698     1.0137 C.3     
   2 C2            -0.5146    -0.0386     1.3917 C.3     
   3 N3            -1.2393     0.1872     2.6563 N.am    
   4 C4            -1.9475     1.4655     2.5067 C.3     
   5 C5            -1.1689     2.2870     1.4589 C.3     
   6 O6             1.1910     1.6846     1.7313 O.3     
   7 C7            -3.3554     1.2215     2.0276 C.2     
   8 O8            -3.7400     0.0889     1.8272 O.2     
   9 N9            -4.1870     2.2619     1.8219 N.am    
  10 C10            0.6560    -0.9827     1.6362 C.3     
  11 N11            0.2210    -2.1166     2.4590 N.3     
  12 C12           -0.1601    -1.6998     3.8130 C.3     
  13 C13           -1.2013    -0.6097     3.7353 C.2     
  14 O14           -1.9955    -0.4556     4.6388 O.2     
  15 C15           -0.7333    -2.8981     4.5722 C.3     
  16 C16           -1.9747    -3.4170     3.8437 C.3     
  17 C17            0.3178    -4.0077     4.6422 C.3     
  18 C18           -5.5257     2.0322     1.2730 C.3     
  19 C19           -5.5682     1.5159    -0.1421 C.2     
  20 N20           -4.4322     1.4291    -0.8621 N.am    
  21 O21           -6.6246     1.1786    -0.6332 O.2     
  22 S22           -4.4944     0.9882    -2.4572 S.o2    
  23 C23           -5.3975     2.3382    -3.2650 C.3     
  24 C24           -6.6098     1.5439     2.2359 C.3     
  25 C25           -6.6419     2.9819     1.7123 C.3     
  26 C26           -5.7303     2.1765    -4.7496 C.3     
  27 C27           -6.8382     2.0631    -3.7005 C.3     
  28 O28           -3.1352     0.9794    -2.8716 O.2     
  29 O29           -5.2694    -0.2028    -2.4615 O.2     
  30 C30           -7.6386     0.5839     1.6965 C.2     
  31 C31           -7.7667    -0.6062     2.2288 C.2     
  32 C32            2.0024     2.6281     1.1923 C.ar    
  33 C33            3.2234     2.9775     1.8151 C.ar    
  34 C34            1.6639     3.2643     0.0269 C.ar    
  35 C35            2.5199     4.2355    -0.5100 C.ar    
  36 N36            3.6571     4.5583     0.0826 N.ar    
  37 C37            4.0420     3.9682     1.2186 C.ar    
  38 C38            2.1431     4.9143    -1.7676 C.2     
  39 S39            0.6697     4.6186    -2.6872 S.3     
  40 C40            5.2532     4.3204     1.8394 C.ar    
  41 C41            5.6243     3.6962     3.0095 C.ar    
  42 C42            4.8105     2.7170     3.5861 C.ar    
  43 C43            3.6312     2.3610     3.0068 C.ar    
  44 Cl44           6.2749     5.5344     1.1350 Cl      
  45 O45            6.7950     4.0357     3.6099 O.3     
  46 C46            7.1247     3.3529     4.8211 C.3     
  47 N47            2.8444     5.8311    -2.3711 N.2     
  48 C48            2.3526     6.3245    -3.4817 C.2     
  49 C49            1.1724     5.8246    -3.8702 C.2     
  50 C50            3.0696     7.3895    -4.2710 C.3     
  51 C51            3.8996     6.7334    -5.3761 C.3     
  52 C52            2.0445     8.3371    -4.8973 C.3     
  53 C53            8.4677     3.8649     5.3458 C.3     
  54 N54            8.3400     5.2798     5.7196 N.3     
  55 C55            9.5321     5.7428     6.4448 C.3     
  56 C56            9.3832     7.2331     6.7619 C.3     
  57 O57            8.1812     7.4386     7.5091 O.3     
  58 C58            7.0003     6.9996     6.8322 C.3     
  59 C59            7.1251     5.5068     6.5158 C.3     
  60 H60            0.1615     1.4450    -0.0611 H       
  61 H61           -1.1834    -0.4285     0.6243 H       
  62 H62           -1.9641     1.9960     3.4587 H       
  63 H63           -0.7807     3.2016     1.9071 H       
  64 H64           -1.8105     2.5232     0.6099 H       
  65 H65           -3.8992     3.1629     2.0373 H       
  66 H66            1.0295    -1.3510     0.6807 H       
  67 H67            1.4523    -0.4458     2.1517 H       
  68 H68           -0.5294    -2.6213     2.0114 H       
  69 H69            0.7187    -1.3253     4.3380 H       
  70 H70           -1.0061    -2.5918     5.5820 H       
  71 H71           -1.7019    -3.7233     2.8339 H       
  72 H72           -2.3831    -4.2707     4.3846 H       
  73 H73           -2.7236    -2.6265     3.7938 H       
  74 H74            1.2343    -3.6128     5.0806 H       
  75 H75           -0.0570    -4.8248     5.2586 H       
  76 H76            0.5250    -4.3759     3.6375 H       
  77 H77           -3.5781     1.6249    -0.4461 H       
  78 H78           -5.1619     3.3409    -2.9084 H       
  79 H79           -6.3270     1.3936     3.2778 H       
  80 H80           -6.3804     3.7775     2.4100 H       
  81 H81           -7.4072     3.2332     0.9779 H       
  82 H82           -5.7140     3.0728    -5.3696 H       
  83 H83           -5.4066     1.2589    -5.2409 H       
  84 H84           -7.2434     1.0710    -3.5016 H       
  85 H85           -7.5508     2.8849    -3.6303 H       
  86 H86           -8.2703     0.8771     0.8710 H       
  87 H87           -8.5041    -1.2941     1.8421 H       
  88 H88           -7.1350    -0.8994     3.0542 H       
  89 H89            0.7407     3.0179    -0.4765 H       
  90 H90            5.1195     2.2392     4.5040 H       
  91 H91            3.0119     1.6028     3.4629 H       
  92 H92            6.3497     3.5377     5.5649 H       
  93 H93            7.1946     2.2825     4.6273 H       
  94 H94            0.6231     6.1117    -4.7546 H       
  95 H95            3.7270     7.9522    -3.6082 H       
  96 H96            3.2421     6.1707    -6.0389 H       
  97 H97            4.4182     7.5037    -5.9470 H       
  98 H98            4.6298     6.0583    -4.9299 H       
  99 H99            1.4532     8.8045    -4.1100 H       
 100 H100           2.5631     9.1074    -5.4681 H       
 101 H101           1.3871     7.7744    -5.5601 H       
 102 H102           8.7620     3.2834     6.2194 H       
 103 H103           9.2248     3.7614     4.5685 H       
 104 H104           9.6339     5.1815     7.3736 H       
 105 H105          10.4167     5.5887     5.8268 H       
 106 H106          10.2384     7.5675     7.3491 H       
 107 H107           9.3352     7.8000     5.8321 H       
 108 H108           6.1322     7.1650     7.4702 H       
 109 H109           6.8831     7.5597     5.9045 H       
 110 H110           6.2527     5.1806     5.9496 H       
 111 H111           7.1885     4.9417     7.4457 H       
@<TRIPOS>BOND
   1    1    2 1
   2    1    6 1
   3    1    5 1
   4    1   60 1
   5    2    3 1
   6    2   10 1
   7    2   61 1
   8    3    4 1
   9    3   13 am
  10    4    5 1
  11    4    7 1
  12    4   62 1
  13    5   63 1
  14    5   64 1
  15    6   32 1
  16    7    8 2
  17    7    9 am
  18    9   18 1
  19    9   65 1
  20   10   11 1
  21   10   66 1
  22   10   67 1
  23   11   12 1
  24   11   68 1
  25   12   13 1
  26   12   15 1
  27   12   69 1
  28   13   14 2
  29   15   16 1
  30   15   17 1
  31   15   70 1
  32   16   71 1
  33   16   72 1
  34   16   73 1
  35   17   74 1
  36   17   75 1
  37   17   76 1
  38   18   19 1
  39   18   24 1
  40   18   25 1
  41   19   20 am
  42   19   21 2
  43   20   22 am
  44   20   77 1
  45   22   23 1
  46   22   28 2
  47   22   29 2
  48   23   26 1
  49   23   27 1
  50   23   78 1
  51   24   25 1
  52   24   30 1
  53   24   79 1
  54   25   80 1
  55   25   81 1
  56   26   27 1
  57   26   82 1
  58   26   83 1
  59   27   84 1
  60   27   85 1
  61   30   31 2
  62   30   86 1
  63   31   87 1
  64   31   88 1
  65   32   33 ar
  66   32   34 ar
  67   33   37 ar
  68   33   43 ar
  69   34   35 ar
  70   34   89 1
  71   35   36 ar
  72   35   38 1
  73   36   37 ar
  74   37   40 ar
  75   38   47 2
  76   38   39 1
  77   39   49 1
  78   40   41 ar
  79   40   44 1
  80   41   42 ar
  81   41   45 1
  82   42   43 ar
  83   42   90 1
  84   43   91 1
  85   45   46 1
  86   46   53 1
  87   46   92 1
  88   46   93 1
  89   47   48 1
  90   48   49 2
  91   48   50 1
  92   49   94 1
  93   50   51 1
  94   50   52 1
  95   50   95 1
  96   51   96 1
  97   51   97 1
  98   51   98 1
  99   52   99 1
 100   52  100 1
 101   52  101 1
 102   53   54 1
 103   53  102 1
 104   53  103 1
 105   54   55 1
 106   54   59 1
 107   55   56 1
 108   55  104 1
 109   55  105 1
 110   56   57 1
 111   56  106 1
 112   56  107 1
 113   57   58 1
 114   58   59 1
 115   58  108 1
 116   58  109 1
 117   59  110 1
 118   59  111 1

#	End of record

