#	Name: ASD03091182
#	Creating user name:	WinNT
#	Creation time:	15. 06. 2019 20:30

#	Modifying user name:	WinNT
#	Modification time:	15. 06. 2019 20:30

#	Program:	/corina/corina34_cracker 3.40 0067  02.08.2006

@<TRIPOS>MOLECULE
ASD03091182
  64   68    0    0    0
SMALL
NO_CHARGES


@<TRIPOS>ATOM
   1 C1            -0.0289     1.4691     0.0323 C.2     
   2 C2             0.0033    -0.0374     0.0102 C.3     
   3 O3             1.0082     2.0978     0.0346 O.2     
   4 N4            -1.2102     2.1178     0.0440 N.am    
   5 C5            -1.2415     3.5823     0.0656 C.3     
   6 C6            -1.1293     4.1159    -1.3640 C.3     
   7 C7            -2.5583     4.0553     0.6846 C.3     
   8 N8             3.3291    -1.0138     1.2299 N.2     
   9 C9             2.0866    -0.6110     1.1697 C.2     
  10 N10            1.3946    -0.4959    -0.0057 N.am    
  11 C11            1.9881    -0.8037    -1.1826 C.2     
  12 C12            3.3856    -1.2591    -1.1390 C.ar    
  13 C13            4.0829    -1.5996    -2.2957 C.ar    
  14 C14            5.3976    -2.0229    -2.1961 C.ar    
  15 C15            6.0196    -2.1082    -0.9503 C.ar    
  16 C16            5.3489    -1.7783     0.1920 C.ar    
  17 C17            4.0205    -1.3473     0.1211 C.ar    
  18 O18            1.3876    -0.7076    -2.2371 O.2     
  19 C19            1.3969    -0.2635     2.4301 C.ar    
  20 C20            0.1880    -0.8784     2.7595 C.ar    
  21 C21           -0.4525    -0.5497     3.9391 C.ar    
  22 C22            0.1030     0.3885     4.7938 C.ar    
  23 C23            1.3027     1.0019     4.4719 C.ar    
  24 C24            1.9550     0.6763     3.2978 C.ar    
  25 F25            1.8385     1.9163     5.3097 F       
  26 F26           -1.6227    -1.1441     4.2593 F       
  27 N27            7.1045    -2.0673    -6.1225 N.3     
  28 C28            5.9199    -2.8675    -5.7763 C.3     
  29 C29            5.2400    -2.3115    -4.5348 C.3     
  30 N30            6.1056    -2.3672    -3.3508 N.3     
  31 C31            7.2799    -1.5012    -3.5264 C.3     
  32 C32            8.4542    -2.3025    -4.0683 C.3     
  33 C33            8.3081    -2.6694    -5.5313 C.3     
  34 C34            7.0091    -0.6439    -5.8794 C.3     
  35 C35            6.9003    -0.3186    -4.3987 C.3     
  36 H36           -0.4967    -0.4246     0.8980 H       
  37 H37           -0.5086    -0.3987    -0.8817 H       
  38 H38           -2.0397     1.6150     0.0382 H       
  39 H39           -0.4065     3.9549     0.6590 H       
  40 H40           -1.9643     3.7433    -1.9574 H       
  41 H41           -1.1526     5.2055    -1.3480 H       
  42 H42           -0.1912     3.7789    -1.8050 H       
  43 H43           -2.6382     3.6751     1.7031 H       
  44 H44           -2.5816     5.1449     0.7006 H       
  45 H45           -3.3932     3.6827     0.0912 H       
  46 H46            3.6027    -1.5345    -3.2609 H       
  47 H47            7.0455    -2.4400    -0.8887 H       
  48 H48            5.8436    -1.8501     1.1493 H       
  49 H49           -0.2462    -1.6094     2.0936 H       
  50 H50           -0.4013     0.6429     5.7143 H       
  51 H51            2.8926     1.1516     3.0501 H       
  52 H52            5.2174    -2.8482    -6.6095 H       
  53 H53            6.2245    -3.8971    -5.5881 H       
  54 H54            4.9612    -1.2741    -4.7198 H       
  55 H55            4.3362    -2.8885    -4.3389 H       
  56 H56            7.5597    -1.1101    -2.5482 H       
  57 H57            9.3645    -1.7159    -3.9444 H       
  58 H58            8.5502    -3.2189    -3.4861 H       
  59 H59            8.2445    -3.7538    -5.6216 H       
  60 H60            9.1852    -2.3191    -6.0754 H       
  61 H61            7.8957    -0.1559    -6.2843 H       
  62 H62            6.1289    -0.2559    -6.3922 H       
  63 H63            5.8740    -0.0279    -4.1744 H       
  64 H64            7.5617     0.5171    -4.1701 H       
@<TRIPOS>BOND
   1    1    2 1
   2    1    3 2
   3    1    4 am
   4    2   10 1
   5    2   36 1
   6    2   37 1
   7    4    5 1
   8    4   38 1
   9    5    6 1
  10    5    7 1
  11    5   39 1
  12    6   40 1
  13    6   41 1
  14    6   42 1
  15    7   43 1
  16    7   44 1
  17    7   45 1
  18    8    9 2
  19    8   17 1
  20    9   10 1
  21    9   19 1
  22   10   11 am
  23   11   12 1
  24   11   18 2
  25   12   13 ar
  26   12   17 ar
  27   13   14 ar
  28   13   46 1
  29   14   15 ar
  30   14   30 1
  31   15   16 ar
  32   15   47 1
  33   16   17 ar
  34   16   48 1
  35   19   20 ar
  36   19   24 ar
  37   20   21 ar
  38   20   49 1
  39   21   22 ar
  40   21   26 1
  41   22   23 ar
  42   22   50 1
  43   23   24 ar
  44   23   25 1
  45   24   51 1
  46   27   28 1
  47   27   33 1
  48   27   34 1
  49   28   29 1
  50   28   52 1
  51   28   53 1
  52   29   30 1
  53   29   54 1
  54   29   55 1
  55   30   31 1
  56   31   32 1
  57   31   35 1
  58   31   56 1
  59   32   33 1
  60   32   57 1
  61   32   58 1
  62   33   59 1
  63   33   60 1
  64   34   35 1
  65   34   61 1
  66   34   62 1
  67   35   63 1
  68   35   64 1

#	End of record

