#	Name: ASD04591011
#	Creating user name:	WinNT
#	Creation time:	15. 06. 2019 20:51

#	Modifying user name:	WinNT
#	Modification time:	15. 06. 2019 20:51

#	Program:	/corina/corina34_cracker 3.40 0067  02.08.2006

@<TRIPOS>MOLECULE
ASD04591011
  61   66    0    0    0
SMALL
NO_CHARGES


@<TRIPOS>ATOM
   1 N1             0.3156     1.5064    -1.2756 N.ar    
   2 C2             0.2897     0.2073    -1.0065 C.ar    
   3 N3             1.3911    -0.4900    -0.7797 N.ar    
   4 C4             2.5835     0.0974    -0.8145 C.ar    
   5 C5             2.6448     1.4767    -1.0981 C.ar    
   6 C6             1.4598     2.1681    -1.3294 C.ar    
   7 N7             3.8625    -0.3635    -0.6239 N.pl3   
   8 C8             4.7750     0.6668    -0.7719 C.ar    
   9 C9             4.0662     1.8443    -1.0702 C.ar    
  10 C10            6.1595     0.7318    -0.6834 C.ar    
  11 N11            6.7904     1.8723    -0.8752 N.ar    
  12 C12            6.1545     2.9958    -1.1568 C.ar    
  13 C13            4.7803     3.0262    -1.2640 C.ar    
  14 N14           -0.9332    -0.4414    -0.9612 N.pl3   
  15 C15           -2.1156     0.2912    -1.0646 C.ar    
  16 N16           -3.2348    -0.3198    -1.4180 N.ar    
  17 C17           -4.3762     0.3331    -1.5286 C.ar    
  18 C18           -4.4413     1.6951    -1.2759 C.ar    
  19 C19           -3.2821     2.3729    -0.9010 C.ar    
  20 C20           -2.1058     1.6543    -0.7896 C.ar    
  21 N21           -5.6557     2.3809    -1.3961 N.3     
  22 C22           -6.7366     1.4710    -1.8005 C.3     
  23 C23           -8.0587     2.2409    -1.8433 C.3     
  24 N24           -7.9389     3.3629    -2.7848 N.3     
  25 C25           -6.8580     4.2728    -2.3804 C.3     
  26 C26           -5.5359     3.5029    -2.3376 C.3     
  27 C27            4.2125    -1.7506    -0.3079 C.3     
  28 C28            2.9997    -2.6509    -0.5521 C.3     
  29 C29            2.5790    -2.5528    -2.0198 C.3     
  30 C30            3.7366    -3.0030    -2.9133 C.3     
  31 C31            4.9493    -2.1027    -2.6691 C.3     
  32 C32            5.3700    -2.2008    -1.2014 C.3     
  33 O33            3.3436    -2.9113    -4.2842 O.3     
  34 H34            1.4739     3.2253    -1.5496 H       
  35 H35            6.7237    -0.1603    -0.4551 H       
  36 H36            6.7197     3.9042    -1.3046 H       
  37 H37            4.2666     3.9478    -1.4948 H       
  38 H38           -0.9674    -1.4053    -0.8574 H       
  39 H39           -5.2697    -0.1992    -1.8195 H       
  40 H40           -3.3032     3.4335    -0.6980 H       
  41 H41           -1.1893     2.1473    -0.5010 H       
  42 H42           -6.5198     1.0654    -2.7887 H       
  43 H43           -6.8137     0.6557    -1.0812 H       
  44 H44           -8.8569     1.5749    -2.1710 H       
  45 H45           -8.2891     2.6235    -0.8490 H       
  46 H46           -7.7984     3.0308    -3.7272 H       
  47 H47           -6.7809     5.0882    -3.0997 H       
  48 H48           -7.0748     4.6785    -1.3923 H       
  49 H49           -4.7377     4.1690    -2.0099 H       
  50 H50           -5.3055     3.1203    -3.3319 H       
  51 H51            4.5122    -1.8205     0.7378 H       
  52 H52            3.2601    -3.6829    -0.3169 H       
  53 H53            2.1751    -2.3301     0.0845 H       
  54 H54            1.7150    -3.1941    -2.1938 H       
  55 H55            2.3187    -1.5208    -2.2550 H       
  56 H56            3.9969    -4.0350    -2.6782 H       
  57 H57            5.7740    -2.4234    -3.3057 H       
  58 H58            4.6890    -1.0707    -2.9043 H       
  59 H59            6.2340    -1.5594    -1.0274 H       
  60 H60            5.6304    -3.2328    -0.9662 H       
  61 H61            4.0303    -3.1818    -4.9091 H       
@<TRIPOS>BOND
   1    1    2 ar
   2    1    6 ar
   3    2    3 ar
   4    2   14 1
   5    3    4 ar
   6    4    5 ar
   7    4    7 1
   8    5    6 ar
   9    5    9 1
  10    6   34 1
  11    7    8 1
  12    7   27 1
  13    8    9 ar
  14    8   10 ar
  15    9   13 ar
  16   10   11 ar
  17   10   35 1
  18   11   12 ar
  19   12   13 ar
  20   12   36 1
  21   13   37 1
  22   14   15 1
  23   14   38 1
  24   15   16 ar
  25   15   20 ar
  26   16   17 ar
  27   17   18 ar
  28   17   39 1
  29   18   19 ar
  30   18   21 1
  31   19   20 ar
  32   19   40 1
  33   20   41 1
  34   21   22 1
  35   21   26 1
  36   22   23 1
  37   22   42 1
  38   22   43 1
  39   23   24 1
  40   23   44 1
  41   23   45 1
  42   24   25 1
  43   24   46 1
  44   25   26 1
  45   25   47 1
  46   25   48 1
  47   26   49 1
  48   26   50 1
  49   27   28 1
  50   27   32 1
  51   27   51 1
  52   28   29 1
  53   28   52 1
  54   28   53 1
  55   29   30 1
  56   29   54 1
  57   29   55 1
  58   30   31 1
  59   30   33 1
  60   30   56 1
  61   31   32 1
  62   31   57 1
  63   31   58 1
  64   32   59 1
  65   32   60 1
  66   33   61 1

#	End of record

