#	Name: ASD01912502
#	Creating user name:	WinNT
#	Creation time:	15. 06. 2019 19:59

#	Modifying user name:	WinNT
#	Modification time:	15. 06. 2019 19:59

#	Program:	/corina/corina34_cracker 3.40 0067  02.08.2006

@<TRIPOS>MOLECULE
ASD01912502
  38   41    0    0    0
SMALL
NO_CHARGES


@<TRIPOS>ATOM
   1 C1             0.5288     1.3998    -0.8963 C.2     
   2 O2             0.8069     0.2109    -1.4401 O.3     
   3 N3             1.9633     0.1813    -1.8049 N.2     
   4 C4             2.5464     1.3219    -1.5430 C.2     
   5 N5             1.6238     2.1161    -0.9546 N.2     
   6 C6             3.9571     1.6782    -1.8366 C.ar    
   7 C7             4.7979     0.7534    -2.4510 C.ar    
   8 C8             6.1111     1.0908    -2.7221 C.ar    
   9 C9             6.5892     2.3459    -2.3833 C.ar    
  10 C10            5.7568     3.2665    -1.7731 C.ar    
  11 C11            4.4429     2.9411    -1.5036 C.ar    
  12 F12            6.9288     0.1953    -3.3176 F       
  13 C13           -0.7973     1.8364    -0.3289 C.3     
  14 C14           -1.3417     0.9012     0.7661 C.3     
  15 C15           -2.0513     0.1456    -0.3721 C.3     
  16 N16           -1.9584     1.4071    -1.1323 N.am    
  17 C17           -2.6544     1.9494    -2.1511 C.2     
  18 C18           -3.7745     1.2036    -2.7598 C.ar    
  19 O19           -2.3602     3.0524    -2.5691 O.2     
  20 C20           -4.5910     1.8176    -3.7145 C.ar    
  21 C21           -5.6376     1.1115    -4.2797 C.ar    
  22 C22           -5.8755    -0.1965    -3.9021 C.ar    
  23 C23           -5.0701    -0.8092    -2.9572 C.ar    
  24 C24           -4.0200    -0.1202    -2.3888 C.ar    
  25 F25           -4.3587     3.0963    -4.0833 F       
  26 H26            4.4251    -0.2253    -2.7148 H       
  27 H27            7.6155     2.6064    -2.5960 H       
  28 H28            6.1345     4.2438    -1.5109 H       
  29 H29            3.7943     3.6615    -1.0274 H       
  30 H30           -0.8161     2.8912    -0.0550 H       
  31 H31           -0.5704     0.3163     1.2671 H       
  32 H32           -2.0247     1.3899     1.4609 H       
  33 H33           -1.4605    -0.6668    -0.7953 H       
  34 H34           -3.0731    -0.1494    -0.1336 H       
  35 H35           -6.2701     1.5833    -5.0171 H       
  36 H36           -6.6942    -0.7433    -4.3462 H       
  37 H37           -5.2626    -1.8317    -2.6675 H       
  38 H38           -3.3934    -0.6007    -1.6520 H       
@<TRIPOS>BOND
   1    1    2 1
   2    1    5 2
   3    1   13 1
   4    2    3 1
   5    3    4 2
   6    4    5 1
   7    4    6 1
   8    6    7 ar
   9    6   11 ar
  10    7    8 ar
  11    7   26 1
  12    8    9 ar
  13    8   12 1
  14    9   10 ar
  15    9   27 1
  16   10   11 ar
  17   10   28 1
  18   11   29 1
  19   13   14 1
  20   13   16 1
  21   13   30 1
  22   14   15 1
  23   14   31 1
  24   14   32 1
  25   15   16 1
  26   15   33 1
  27   15   34 1
  28   16   17 am
  29   17   18 1
  30   17   19 2
  31   18   20 ar
  32   18   24 ar
  33   20   21 ar
  34   20   25 1
  35   21   22 ar
  36   21   35 1
  37   22   23 ar
  38   22   36 1
  39   23   24 ar
  40   23   37 1
  41   24   38 1

#	End of record

