#	Name: ASD01918117
#	Creating user name:	WinNT
#	Creation time:	15. 06. 2019 20:10

#	Modifying user name:	WinNT
#	Modification time:	15. 06. 2019 20:10

#	Program:	/corina/corina34_cracker 3.40 0067  02.08.2006

@<TRIPOS>MOLECULE
ASD01918117
  38   40    0    0    0
SMALL
NO_CHARGES


@<TRIPOS>ATOM
   1 N1            -0.0167     1.3957     0.0056 N.am    
   2 C2             0.0027    -0.0037     0.0074 C.2     
   3 C3             2.4224    -0.1116    -0.5762 C.3     
   4 C4             2.1955     1.3355    -1.0279 C.3     
   5 C5             1.3002     2.0626    -0.0184 C.3     
   6 C6            -0.9978    -0.8769     0.2518 C.2     
   7 C7            -0.4708    -2.1694     0.1335 C.2     
   8 N8             0.8010    -2.0714    -0.1714 N.2     
   9 N9             1.1272    -0.7187    -0.2588 N.pl3   
  10 C10           -1.2351    -3.4541     0.3247 C.3     
  11 N11           -1.7036    -3.9416    -0.9749 N.pl3   
  12 C12           -1.1698     2.0934     0.0191 C.2     
  13 O13           -2.2311     1.5125    -0.0668 O.2     
  14 C14           -2.4408    -5.1254    -1.0523 C.ar    
  15 C15           -2.8858    -5.5891    -2.2838 C.ar    
  16 C16           -3.6142    -6.7602    -2.3568 C.ar    
  17 C17           -3.9006    -7.4710    -1.2057 C.ar    
  18 C18           -3.4591    -7.0122     0.0218 C.ar    
  19 C19           -2.7258    -5.8447     0.1014 C.ar    
  20 C20           -1.1405     3.5952     0.1408 C.3     
  21 H21            2.9020    -0.6733    -1.3779 H       
  22 H22            3.0574    -0.1222     0.3096 H       
  23 H23            3.1550     1.8483    -1.0960 H       
  24 H24            1.7147     1.3384    -2.0062 H       
  25 H25            1.1783     3.1030    -0.3198 H       
  26 H26            1.7524     2.0159     0.9723 H       
  27 H27           -2.0194    -0.6245     0.4949 H       
  28 H28           -0.5835    -4.2003     0.7793 H       
  29 H29           -2.0909    -3.2743     0.9754 H       
  30 H30           -1.5017    -3.4423    -1.7817 H       
  31 H31           -2.6628    -5.0342    -3.1831 H       
  32 H32           -3.9607    -7.1211    -3.3139 H       
  33 H33           -4.4707    -8.3863    -1.2656 H       
  34 H34           -3.6846    -7.5698     0.9189 H       
  35 H35           -2.3810    -5.4871     1.0604 H       
  36 H36           -0.1143     3.9269     0.2990 H       
  37 H37           -1.5297     4.0415    -0.7742 H       
  38 H38           -1.7562     3.9033     0.9858 H       
@<TRIPOS>BOND
   1    1    2 1
   2    1    5 1
   3    1   12 am
   4    2    6 2
   5    2    9 1
   6    3    4 1
   7    3    9 1
   8    3   21 1
   9    3   22 1
  10    4    5 1
  11    4   23 1
  12    4   24 1
  13    5   25 1
  14    5   26 1
  15    6    7 1
  16    6   27 1
  17    7    8 2
  18    7   10 1
  19    8    9 1
  20   10   11 1
  21   10   28 1
  22   10   29 1
  23   11   14 1
  24   11   30 1
  25   12   13 2
  26   12   20 1
  27   14   15 ar
  28   14   19 ar
  29   15   16 ar
  30   15   31 1
  31   16   17 ar
  32   16   32 1
  33   17   18 ar
  34   17   33 1
  35   18   19 ar
  36   18   34 1
  37   19   35 1
  38   20   36 1
  39   20   37 1
  40   20   38 1

#	End of record

