#	Name: ASD04880250
#	Creating user name:	WinNT
#	Creation time:	15. 06. 2019 20:53

#	Modifying user name:	WinNT
#	Modification time:	15. 06. 2019 20:53

#	Program:	/corina/corina34_cracker 3.40 0067  02.08.2006

@<TRIPOS>MOLECULE
ASD04880250
  56   59    0    0    0
SMALL
NO_CHARGES


@<TRIPOS>ATOM
   1 C1            -0.0122     1.4645     0.0379 C.3     
   2 N2             0.0038    -0.0070     0.0395 N.am    
   3 N3             1.3266    -0.4431     0.0789 N.2     
   4 C4             2.1943     0.5092     0.1037 C.2     
   5 C5             1.4816     1.8425     0.0817 C.3     
   6 C6            -1.0835    -0.8028     0.0085 C.2     
   7 C7            -0.9242    -2.2671    -0.1125 C.ar    
   8 O8            -2.1955    -0.3161     0.0800 O.2     
   9 C9             0.3384    -2.8189    -0.3382 C.ar    
  10 C10            0.4801    -4.1863    -0.4501 C.ar    
  11 C11           -0.6258    -5.0109    -0.3398 C.ar    
  12 C12           -1.8796    -4.4708    -0.1162 C.ar    
  13 C13           -2.0344    -3.1051     0.0040 C.ar    
  14 C14            3.6564     0.3269     0.1474 C.ar    
  15 C15            4.5004     1.4397     0.1719 C.ar    
  16 C16            4.2016    -0.9599     0.1702 C.ar    
  17 C17            5.5730    -1.1251     0.2111 C.ar    
  18 C18            6.4090    -0.0103     0.2295 C.ar    
  19 C19            5.8683     1.2668     0.2127 C.ar    
  20 O20            7.7577    -0.1749     0.2702 O.3     
  21 C21            8.5558     1.0103     0.2871 C.3     
  22 O22            6.1068    -2.3757     0.2338 O.3     
  23 C23            5.1909    -3.4725     0.2134 C.3     
  24 C24            1.8647     2.6264    -1.1471 C.ar    
  25 C25            2.4422     3.8756    -1.0177 C.ar    
  26 C26            1.6436     2.0939    -2.4034 C.ar    
  27 C27            1.9950     2.8129    -3.5305 C.ar    
  28 C28            2.5670     4.0647    -3.4013 C.ar    
  29 C29            2.7936     4.5947    -2.1449 C.ar    
  30 C30           -3.0782    -5.3766     0.0021 C.3     
  31 N31           -3.2634    -5.7626     1.4074 N.3     
  32 H32           -0.4769     1.8420    -0.8729 H       
  33 H33           -0.5298     1.8434     0.9192 H       
  34 H34            1.7058     2.4109     0.9843 H       
  35 H35            1.2021    -2.1763    -0.4252 H       
  36 H36            1.4561    -4.6143    -0.6247 H       
  37 H37           -0.5095    -6.0809    -0.4289 H       
  38 H38           -3.0138    -2.6846     0.1785 H       
  39 H39            4.0821     2.4353     0.1585 H       
  40 H40            3.5526    -1.8231     0.1562 H       
  41 H41            6.5199     2.1279     0.2271 H       
  42 H42            8.3590     1.5937    -0.6123 H       
  43 H43            8.3065     1.6037     1.1668 H       
  44 H44            9.6106     0.7377     0.3197 H       
  45 H45            4.5898    -3.4270    -0.6947 H       
  46 H46            5.7464    -4.4101     0.2350 H       
  47 H47            4.5380    -3.4168     1.0844 H       
  48 H48            2.6187     4.2900    -0.0361 H       
  49 H49            1.1967     1.1159    -2.5044 H       
  50 H50            1.8230     2.3966    -4.5121 H       
  51 H51            2.8419     4.6264    -4.2819 H       
  52 H52            3.2405     5.5727    -2.0439 H       
  53 H53           -3.9662    -4.8521    -0.3507 H       
  54 H54           -2.9197    -6.2698    -0.6021 H       
  55 H55           -3.3481    -4.9488     1.9978 H       
  56 H56           -4.0617    -6.3706     1.5131 H       
@<TRIPOS>BOND
   1    1    2 1
   2    1    5 1
   3    1   32 1
   4    1   33 1
   5    2    3 1
   6    2    6 am
   7    3    4 2
   8    4    5 1
   9    4   14 1
  10    5   24 1
  11    5   34 1
  12    6    7 1
  13    6    8 2
  14    7    9 ar
  15    7   13 ar
  16    9   10 ar
  17    9   35 1
  18   10   11 ar
  19   10   36 1
  20   11   12 ar
  21   11   37 1
  22   12   13 ar
  23   12   30 1
  24   13   38 1
  25   14   15 ar
  26   14   16 ar
  27   15   19 ar
  28   15   39 1
  29   16   17 ar
  30   16   40 1
  31   17   18 ar
  32   17   22 1
  33   18   19 ar
  34   18   20 1
  35   19   41 1
  36   20   21 1
  37   21   42 1
  38   21   43 1
  39   21   44 1
  40   22   23 1
  41   23   45 1
  42   23   46 1
  43   23   47 1
  44   24   25 ar
  45   24   26 ar
  46   25   29 ar
  47   25   48 1
  48   26   27 ar
  49   26   49 1
  50   27   28 ar
  51   27   50 1
  52   28   29 ar
  53   28   51 1
  54   29   52 1
  55   30   31 1
  56   30   53 1
  57   30   54 1
  58   31   55 1
  59   31   56 1

#	End of record

