#	Name: ASD01914031
#	Creating user name:	WinNT
#	Creation time:	15. 06. 2019 20:02

#	Modifying user name:	WinNT
#	Modification time:	15. 06. 2019 20:02

#	Program:	/corina/corina34_cracker 3.40 0067  02.08.2006

@<TRIPOS>MOLECULE
ASD01914031
  39   41    0    0    0
SMALL
NO_CHARGES


@<TRIPOS>ATOM
   1 C1            -0.0167     1.3804     0.0096 C.ar    
   2 C2             0.0021    -0.0041     0.0020 C.ar    
   3 C3            -1.1867    -0.7138     0.0091 C.ar    
   4 C4            -2.4155     1.3466     0.0439 C.ar    
   5 C5            -1.2239     2.0564     0.0305 C.ar    
   6 O6            -3.6017     2.0093     0.0640 O.3     
   7 C7            -4.7890     1.2142     0.0769 C.3     
   8 C8            -5.9968     2.1151     0.0985 C.ar    
   9 N9            -7.2036     1.5823     0.1130 N.ar    
  10 C10           -8.2914     2.3244     0.1321 C.ar    
  11 C11           -8.2005     3.7166     0.1373 C.ar    
  12 C12           -6.9331     4.3117     0.1222 C.ar    
  13 C13           -5.8219     3.4875     0.1085 C.ar    
  14 C14           -9.4218     4.5495     0.1577 C.2     
  15 N15          -10.6360     3.9648     0.1716 N.am    
  16 O16           -9.3308     5.7616     0.1621 O.2     
  17 C17          -11.8463     4.7901     0.1919 C.3     
  18 C18           -2.3954    -0.0402     0.0238 C.ar    
  19 F19           -1.1666    -2.0647     0.0012 F       
  20 F20            1.1442     2.0714     0.0023 F       
  21 C21          -13.0827     4.0849    -0.3900 C.3     
  22 C22          -13.8897     4.7309     0.7486 C.3     
  23 C23          -12.5756     4.7809     1.5457 C.3     
  24 H24            0.9449    -0.5308    -0.0098 H       
  25 H25           -1.2381     3.1362     0.0465 H       
  26 H26           -4.8176     0.5895    -0.8158 H       
  27 H27           -4.7923     0.5806     0.9639 H       
  28 H28           -9.2621     1.8512     0.1435 H       
  29 H29           -6.8257     5.3863     0.1257 H       
  30 H30           -4.8285     3.9111     0.0967 H       
  31 H31          -10.7087     2.9975     0.1682 H       
  32 H32          -11.6837     5.7897    -0.2112 H       
  33 H33           -3.3225    -0.5941     0.0286 H       
  34 H34          -13.3630     4.4419    -1.3810 H       
  35 H35          -13.0345     2.9977    -0.3287 H       
  36 H36          -14.2866     5.7148     0.4987 H       
  37 H37          -14.6389     4.0689     1.1829 H       
  38 H38          -12.3887     3.8840     2.1363 H       
  39 H39          -12.4465     5.6999     2.1175 H       
@<TRIPOS>BOND
   1    1    2 ar
   2    1   20 1
   3    1    5 ar
   4    2    3 ar
   5    2   24 1
   6    3   18 ar
   7    3   19 1
   8    4    5 ar
   9    4    6 1
  10    4   18 ar
  11    5   25 1
  12    6    7 1
  13    7    8 1
  14    7   26 1
  15    7   27 1
  16    8    9 ar
  17    8   13 ar
  18    9   10 ar
  19   10   11 ar
  20   10   28 1
  21   11   12 ar
  22   11   14 1
  23   12   13 ar
  24   12   29 1
  25   13   30 1
  26   14   15 am
  27   14   16 2
  28   15   17 1
  29   15   31 1
  30   17   21 1
  31   17   23 1
  32   17   32 1
  33   18   33 1
  34   21   22 1
  35   21   34 1
  36   21   35 1
  37   22   23 1
  38   22   36 1
  39   22   37 1
  40   23   38 1
  41   23   39 1

#	End of record

