#	Name: ASD08150400
#	Creating user name:	WinNT
#	Creation time:	15. 06. 2019 21:15

#	Modifying user name:	WinNT
#	Modification time:	15. 06. 2019 21:15

#	Program:	/corina/corina34_cracker 3.40 0067  02.08.2006

@<TRIPOS>MOLECULE
ASD08150400
  47   50    0    0    0
SMALL
NO_CHARGES


@<TRIPOS>ATOM
   1 N1            -0.0257     1.1767     0.0767 N.am    
   2 C2            -0.0133    -0.1632    -0.1060 C.2     
   3 C3             1.1727    -0.8261    -0.4770 C.2     
   4 C4             2.3327    -0.1267    -0.5518 C.2     
   5 C5             2.3363     1.2413    -0.1857 C.ar    
   6 C6             3.5139     2.0059    -0.2900 C.ar    
   7 N7             3.5425     3.2543     0.0903 N.ar    
   8 C8             2.4824     3.8444     0.6617 C.ar    
   9 C9             1.2722     3.1253     0.8546 C.ar    
  10 C10            1.1403     1.8614     0.2329 C.ar    
  11 C11            0.2916     3.6920     1.6722 C.ar    
  12 C12            0.4440     4.9821     2.1555 C.ar    
  13 C13            1.5754     5.7358     1.8191 C.ar    
  14 C14            2.5748     5.1803     1.0841 C.ar    
  15 O15           -1.0402    -0.7986     0.0539 O.2     
  16 C16           -0.5997     5.5669     3.0344 C.2     
  17 C17           -1.3254     1.8496    -0.0076 C.3     
  18 C18           -0.5357     6.7727     3.6700 C.2     
  19 C19           -1.5788     2.2906    -1.4506 C.3     
  20 N20           -2.9385     2.8346    -1.5647 N.3     
  21 C21           -3.0139     4.1870    -0.9960 C.3     
  22 C22           -3.3940     2.8247    -2.9613 C.3     
  23 N23           -1.6811     6.9289     4.3643 N.pl3   
  24 N24           -2.4766     5.7956     4.1569 N.2     
  25 C25           -1.8388     4.9808     3.3589 C.2     
  26 C26           -2.0322     8.0849     5.1930 C.3     
  27 H27            1.1600    -1.8814    -0.7014 H       
  28 H28            3.2409    -0.6073    -0.8863 H       
  29 H29            4.4071     1.5510    -0.6922 H       
  30 H30           -0.5720     3.1276     1.9912 H       
  31 H31            1.6536     6.7617     2.1441 H       
  32 H32            3.4433     5.7683     0.8249 H       
  33 H33           -2.1113     1.1624     0.3057 H       
  34 H34           -1.3253     2.7230     0.6445 H       
  35 H35            0.2840     7.4744     3.6256 H       
  36 H36           -0.8560     3.0577    -1.7283 H       
  37 H37           -1.4732     1.4338    -2.1162 H       
  38 H38           -2.3283     4.8446    -1.5304 H       
  39 H39           -4.0312     4.5660    -1.0936 H       
  40 H40           -2.7381     4.1537     0.0580 H       
  41 H41           -3.4725     1.7952    -3.3106 H       
  42 H42           -4.3693     3.3067    -3.0288 H       
  43 H43           -2.6781     3.3650    -3.5808 H       
  44 H44           -2.1963     4.0218     3.0141 H       
  45 H45           -2.5514     8.8245     4.5836 H       
  46 H46           -2.6820     7.7642     6.0073 H       
  47 H47           -1.1244     8.5259     5.6047 H       
@<TRIPOS>BOND
   1    1    2 am
   2    1   10 1
   3    1   17 1
   4    2    3 1
   5    2   15 2
   6    3    4 2
   7    3   27 1
   8    4    5 1
   9    4   28 1
  10    5    6 ar
  11    5   10 ar
  12    6    7 ar
  13    6   29 1
  14    7    8 ar
  15    8    9 ar
  16    8   14 ar
  17    9   10 ar
  18    9   11 ar
  19   11   12 ar
  20   11   30 1
  21   12   13 ar
  22   12   16 1
  23   13   14 ar
  24   13   31 1
  25   14   32 1
  26   16   18 2
  27   16   25 1
  28   17   19 1
  29   17   33 1
  30   17   34 1
  31   18   23 1
  32   18   35 1
  33   19   20 1
  34   19   36 1
  35   19   37 1
  36   20   21 1
  37   20   22 1
  38   21   38 1
  39   21   39 1
  40   21   40 1
  41   22   41 1
  42   22   42 1
  43   22   43 1
  44   23   24 1
  45   23   26 1
  46   24   25 2
  47   25   44 1
  48   26   45 1
  49   26   46 1
  50   26   47 1

#	End of record

