#	Name: ASD05513009
#	Creating user name:	WinNT
#	Creation time:	15. 06. 2019 21:01

#	Modifying user name:	WinNT
#	Modification time:	15. 06. 2019 21:01

#	Program:	/corina/corina34_cracker 3.40 0067  02.08.2006

@<TRIPOS>MOLECULE
ASD05513009
  23   24    0    0    0
SMALL
NO_CHARGES


@<TRIPOS>ATOM
   1 C1            -0.0107     1.3990     0.4125 C.2     
   2 C2             0.0021    -0.0041     0.0020 C.2     
   3 C3             1.1849    -0.6682    -0.1156 C.2     
   4 C4             2.5235    -0.0886    -0.3457 C.ar    
   5 C5             3.4216    -1.1656    -0.3933 C.ar    
   6 N6             2.7267    -2.3570    -0.2091 N.am    
   7 C7             1.4124    -2.1367    -0.0340 C.2     
   8 C8             2.9817     1.2177    -0.5048 C.ar    
   9 C9             4.3263     1.4505    -0.7100 C.ar    
  10 C10            5.2154     0.3895    -0.7575 C.ar    
  11 C11            4.7714    -0.9092    -0.6011 C.ar    
  12 O12            0.5618    -2.9845     0.1491 O.2     
  13 O13            1.0167     1.9355     0.7714 O.2     
  14 C14           -1.2987     2.1808     0.3838 C.3     
  15 H15           -0.9267    -0.5138    -0.2079 H       
  16 H16            3.1392    -3.2349    -0.2033 H       
  17 H17            2.2875     2.0442    -0.4679 H       
  18 H18            4.6859     2.4614    -0.8341 H       
  19 H19            6.2663     0.5794    -0.9185 H       
  20 H20            5.4753    -1.7274    -0.6402 H       
  21 H21           -1.8038     2.0843     1.3449 H       
  22 H22           -1.0818     3.2315     0.1912 H       
  23 H23           -1.9422     1.7920    -0.4054 H       
@<TRIPOS>BOND
   1    1    2 1
   2    1   13 2
   3    1   14 1
   4    2    3 2
   5    2   15 1
   6    3    4 1
   7    3    7 1
   8    4    5 ar
   9    4    8 ar
  10    5    6 1
  11    5   11 ar
  12    6    7 am
  13    6   16 1
  14    7   12 2
  15    8    9 ar
  16    8   17 1
  17    9   10 ar
  18    9   18 1
  19   10   11 ar
  20   10   19 1
  21   11   20 1
  22   14   21 1
  23   14   22 1
  24   14   23 1

#	End of record

