#	Name: ASD01900164
#	Creating user name:	WinNT
#	Creation time:	15. 06. 2019 19:51

#	Modifying user name:	WinNT
#	Modification time:	15. 06. 2019 19:51

#	Program:	/corina/corina34_cracker 3.40 0067  02.08.2006

@<TRIPOS>MOLECULE
ASD01900164
  35   37    0    0    0
SMALL
NO_CHARGES


@<TRIPOS>ATOM
   1 C1             0.0377     1.3060     0.1260 C.ar    
   2 C2            -1.1242     1.6630    -0.5389 C.ar    
   3 C3            -1.1557     2.8422    -1.2671 C.ar    
   4 C4            -0.0143     3.6273    -1.3035 C.ar    
   5 C5             1.1190     3.2064    -0.6108 C.ar    
   6 N6             1.1073     2.0699     0.0747 N.ar    
   7 C7             2.3472     4.0338    -0.6400 C.2     
   8 N8             3.4466     3.6319     0.0280 N.am    
   9 O9             2.3636     5.0751    -1.2665 O.2     
  10 C10            4.6363     4.3614    -0.0791 C.ar    
  11 C11            4.5952     5.7459    -0.1802 C.ar    
  12 C12            5.7695     6.4657    -0.2859 C.ar    
  13 C13            6.9917     5.8039    -0.2910 C.ar    
  14 C14            7.0318     4.4193    -0.1898 C.ar    
  15 C15            5.8584     3.7009    -0.0785 C.ar    
  16 N16            8.1822     6.5328    -0.3986 N.am    
  17 C17            9.3124     5.9213    -0.8050 C.2     
  18 O18            9.2783     4.7626    -1.1735 O.2     
  19 Cl19           5.7187     8.1963    -0.4129 Cl      
  20 S20           12.1460     6.0030    -1.3014 S.3     
  21 C21           10.5883     6.6557    -0.8028 C.2     
  22 N22           10.7489     7.8971    -0.4313 N.2     
  23 C23           11.9682     8.3624    -0.5061 C.2     
  24 C24           12.8950     7.5017    -0.9554 C.2     
  25 H25            0.0642     0.3903     0.6979 H       
  26 H26           -1.9969     1.0285    -0.4907 H       
  27 H27           -2.0493     3.1421    -1.7943 H       
  28 H28           -0.0032     4.5521    -1.8612 H       
  29 H29            3.4133     2.8371     0.5831 H       
  30 H30            3.6452     6.2597    -0.1766 H       
  31 H31            7.9815     3.9049    -0.1941 H       
  32 H32            5.8901     2.6242     0.0005 H       
  33 H33            8.1936     7.4780    -0.1807 H       
  34 H34           12.2143     9.3755    -0.2245 H       
  35 H35           13.9454     7.7202    -1.0787 H       
@<TRIPOS>BOND
   1    1    2 ar
   2    1    6 ar
   3    1   25 1
   4    2    3 ar
   5    2   26 1
   6    3    4 ar
   7    3   27 1
   8    4    5 ar
   9    4   28 1
  10    5    6 ar
  11    5    7 1
  12    7    8 am
  13    7    9 2
  14    8   10 1
  15    8   29 1
  16   10   11 ar
  17   10   15 ar
  18   11   12 ar
  19   11   30 1
  20   12   13 ar
  21   12   19 1
  22   13   14 ar
  23   13   16 1
  24   14   15 ar
  25   14   31 1
  26   15   32 1
  27   16   17 am
  28   16   33 1
  29   17   18 2
  30   17   21 1
  31   20   21 1
  32   20   24 1
  33   21   22 2
  34   22   23 1
  35   23   24 2
  36   23   34 1
  37   24   35 1

#	End of record

