#	Name: ASD01200251
#	Creating user name:	WinNT
#	Creation time:	15. 06. 2019 19:08

#	Modifying user name:	WinNT
#	Modification time:	15. 06. 2019 19:08

#	Program:	/corina/corina34_cracker 3.40 0067  02.08.2006

@<TRIPOS>MOLECULE
ASD01200251
  47   49    0    0    0
SMALL
NO_CHARGES


@<TRIPOS>ATOM
   1 C1            -0.0184     1.5028     0.0103 C.2     
   2 C2             0.0021    -0.0041     0.0020 C.3     
   3 C3            -0.7241    -0.5171    -1.2431 C.3     
   4 O4             1.0236     2.1234     0.0037 O.2     
   5 N5            -1.1946     2.1607     0.0195 N.am    
   6 C6             1.4295    -0.4870    -0.0142 C.ar    
   7 C7             1.9022    -1.2811     1.0138 C.ar    
   8 C8             3.2116    -1.7240     0.9990 C.ar    
   9 C9             4.0481    -1.3733    -0.0442 C.ar    
  10 C10            3.5751    -0.5800    -1.0727 C.ar    
  11 C11            2.2645    -0.1406    -1.0600 C.ar    
  12 S12            5.7174    -1.9369    -0.0625 S.o2    
  13 O13            6.4077    -0.9630    -0.8333 O.2     
  14 O14            6.0322    -2.1447     1.3075 O.2     
  15 C15            5.6513    -3.5191    -0.9474 C.3     
  16 F16            5.1562    -3.3105    -2.2392 F       
  17 F17            6.9371    -4.0651    -1.0233 F       
  18 F18            4.8095    -4.4018    -0.2623 F       
  19 S19           -2.6280     4.5107     0.0390 S.3     
  20 C20           -1.2134     3.5506     0.0271 C.2     
  21 N21           -0.1611     4.3074     0.0270 N.2     
  22 C22           -0.3631     5.6117     0.0356 C.2     
  23 C23           -1.6473     5.9742     0.0434 C.2     
  24 C24           -0.8126    -2.0436    -1.1892 C.3     
  25 C25           -1.6487    -2.5652    -2.3710 C.3     
  26 C26           -0.7214    -3.4804    -3.1969 C.3     
  27 C27            0.3616    -3.9347    -2.1871 C.3     
  28 C28            0.5937    -2.6601    -1.3382 C.3     
  29 H29           -0.4983    -0.3791     0.8948 H       
  30 H30           -1.7288    -0.0959    -1.2772 H       
  31 H31           -0.1736    -0.2164    -2.1345 H       
  32 H32           -2.0280     1.6644     0.0207 H       
  33 H33            1.2487    -1.5551     1.8288 H       
  34 H34            3.5811    -2.3438     1.8025 H       
  35 H35            4.2288    -0.3057    -1.8875 H       
  36 H36            1.8939     0.4761    -1.8654 H       
  37 H37            0.4455     6.3276     0.0367 H       
  38 H38           -2.0203     6.9877     0.0511 H       
  39 H39           -1.2611    -2.3583    -0.2469 H       
  40 H40           -2.5025    -3.1337    -2.0022 H       
  41 H41           -1.9914    -1.7308    -2.9829 H       
  42 H42           -1.2734    -4.3401    -3.5767 H       
  43 H43           -0.2684    -2.9239    -4.0175 H       
  44 H44           -0.0076    -4.7507    -1.5657 H       
  45 H45            1.2754    -4.2254    -2.7053 H       
  46 H46            1.2590    -1.9711    -1.8586 H       
  47 H47            1.0012    -2.9211    -0.3616 H       
@<TRIPOS>BOND
   1    1    2 1
   2    1    4 2
   3    1    5 am
   4    2    3 1
   5    2    6 1
   6    2   29 1
   7    3   24 1
   8    3   30 1
   9    3   31 1
  10    5   20 1
  11    5   32 1
  12    6    7 ar
  13    6   11 ar
  14    7    8 ar
  15    7   33 1
  16    8    9 ar
  17    8   34 1
  18    9   10 ar
  19    9   12 1
  20   10   11 ar
  21   10   35 1
  22   11   36 1
  23   12   13 2
  24   12   14 2
  25   12   15 1
  26   15   16 1
  27   15   17 1
  28   15   18 1
  29   19   20 1
  30   19   23 1
  31   20   21 2
  32   21   22 1
  33   22   23 2
  34   22   37 1
  35   23   38 1
  36   24   25 1
  37   24   28 1
  38   24   39 1
  39   25   26 1
  40   25   40 1
  41   25   41 1
  42   26   27 1
  43   26   42 1
  44   26   43 1
  45   27   28 1
  46   27   44 1
  47   27   45 1
  48   28   46 1
  49   28   47 1

#	End of record

