#	Name: ASD01180286
#	Creating user name:	WinNT
#	Creation time:	15. 06. 2019 19:07

#	Modifying user name:	WinNT
#	Modification time:	15. 06. 2019 19:07

#	Program:	/corina/corina34_cracker 3.40 0067  02.08.2006

@<TRIPOS>MOLECULE
ASD01180286
  63   65    0    0    0
SMALL
NO_CHARGES


@<TRIPOS>ATOM
   1 C1             0.8354     1.5052    -0.7405 C.2     
   2 C2             0.7434     0.0044    -0.6399 C.3     
   3 C3             2.1482    -0.5982    -0.7046 C.3     
   4 O4             1.9140     2.0382    -0.8525 O.2     
   5 O5            -0.2812     2.2495    -0.7113 O.3     
   6 C6             3.1795    -2.8049    -0.6417 C.2     
   7 C7             3.0892    -4.2773    -0.5430 C.ar    
   8 C8             4.2480    -5.0546    -0.5788 C.ar    
   9 C9             4.1568    -6.4280    -0.4858 C.ar    
  10 C10            2.9202    -7.0351    -0.3576 C.ar    
  11 C11            1.7677    -6.2705    -0.3215 C.ar    
  12 C12            1.8453    -4.8958    -0.4078 C.ar    
  13 O13            4.2646    -2.2687    -0.7543 O.2     
  14 N14            2.0588    -2.0572    -0.6068 N.am    
  15 C15            2.8281    -8.5360    -0.2575 C.3     
  16 C16            2.6509    -8.9395     1.2077 C.3     
  17 C17            3.9146    -8.5805     1.9919 C.3     
  18 C18            3.6892    -8.8618     3.4789 C.3     
  19 N19            1.6804    -9.0079    -1.0362 N.pl3   
  20 C20            1.7099   -12.7535    -2.6441 C.ar    
  21 N21            0.7073   -11.9351    -2.9326 N.ar    
  22 C22            0.6641   -10.7142    -2.4299 C.ar    
  23 C23            1.6904   -10.2914    -1.5869 C.ar    
  24 C24            2.7270   -11.1800    -1.3070 C.ar    
  25 N25            2.7030   -12.3858    -1.8462 N.ar    
  26 C26            1.7175   -14.1182    -3.2241 C.ar    
  27 C27            2.7611   -14.9956    -2.9347 C.ar    
  28 C28            2.7630   -16.2645    -3.4774 C.ar    
  29 C29            1.7319   -16.6660    -4.3076 C.ar    
  30 C30            0.6938   -15.7994    -4.5987 C.ar    
  31 C31            0.6780   -14.5304    -4.0563 C.ar    
  32 C32            1.7399   -18.0527    -4.8975 C.3     
  33 F33            1.0752   -18.9305    -4.0344 F       
  34 F34            1.0906   -18.0361    -6.1366 F       
  35 F35            3.0613   -18.4789    -5.0691 F       
  36 C36            5.0862    -9.4240     1.4852 C.3     
  37 H37            0.2742    -0.2683     0.3054 H       
  38 H38            0.1451    -0.3792    -1.4664 H       
  39 H39            2.6174    -0.3255    -1.6499 H       
  40 H40            2.7465    -0.2147     0.1219 H       
  41 H41           -0.1719     3.2079    -0.7790 H       
  42 H42            5.2138    -4.5819    -0.6795 H       
  43 H43            5.0527    -7.0306    -0.5133 H       
  44 H44            0.8054    -6.7506    -0.2213 H       
  45 H45            0.9453    -4.2997    -0.3749 H       
  46 H46            1.1929    -2.4851    -0.5169 H       
  47 H47            3.7417    -8.9830    -0.6495 H       
  48 H48            1.7979    -8.4084     1.6302 H       
  49 H49            2.4773   -10.0137     1.2703 H       
  50 H50            4.1408    -7.5234     1.8524 H       
  51 H51            3.4630    -9.9189     3.6184 H       
  52 H52            4.5895    -8.6061     4.0376 H       
  53 H53            2.8546    -8.2609     3.8399 H       
  54 H54            0.9136    -8.4289    -1.1693 H       
  55 H55           -0.1552   -10.0525    -2.6692 H       
  56 H56            3.5391   -10.8867    -0.6582 H       
  57 H57            3.5670   -14.6829    -2.2872 H       
  58 H58            3.5711   -16.9451    -3.2538 H       
  59 H59           -0.1084   -16.1181    -5.2477 H       
  60 H60           -0.1356   -13.8564    -4.2801 H       
  61 H61            4.8217   -10.4803     1.5350 H       
  62 H62            5.3090    -9.1535     0.4530 H       
  63 H63            5.9625    -9.2392     2.1064 H       
@<TRIPOS>BOND
   1    1    2 1
   2    1    4 2
   3    1    5 1
   4    2    3 1
   5    2   37 1
   6    2   38 1
   7    3   14 1
   8    3   39 1
   9    3   40 1
  10    5   41 1
  11    6    7 1
  12    6   13 2
  13    6   14 am
  14    7    8 ar
  15    7   12 ar
  16    8    9 ar
  17    8   42 1
  18    9   10 ar
  19    9   43 1
  20   10   11 ar
  21   10   15 1
  22   11   12 ar
  23   11   44 1
  24   12   45 1
  25   14   46 1
  26   15   16 1
  27   15   19 1
  28   15   47 1
  29   16   17 1
  30   16   48 1
  31   16   49 1
  32   17   18 1
  33   17   36 1
  34   17   50 1
  35   18   51 1
  36   18   52 1
  37   18   53 1
  38   19   23 1
  39   19   54 1
  40   20   21 ar
  41   20   25 ar
  42   20   26 1
  43   21   22 ar
  44   22   23 ar
  45   22   55 1
  46   23   24 ar
  47   24   25 ar
  48   24   56 1
  49   26   27 ar
  50   26   31 ar
  51   27   28 ar
  52   27   57 1
  53   28   29 ar
  54   28   58 1
  55   29   30 ar
  56   29   32 1
  57   30   31 ar
  58   30   59 1
  59   31   60 1
  60   32   33 1
  61   32   34 1
  62   32   35 1
  63   36   61 1
  64   36   62 1
  65   36   63 1

#	End of record

