#	Name: ASD01916220
#	Creating user name:	WinNT
#	Creation time:	15. 06. 2019 20:06

#	Modifying user name:	WinNT
#	Modification time:	15. 06. 2019 20:06

#	Program:	/corina/corina34_cracker 3.40 0067  02.08.2006

@<TRIPOS>MOLECULE
ASD01916220
  21   22    0    0    0
SMALL
NO_CHARGES


@<TRIPOS>ATOM
   1 C1            -0.0164     1.3616     0.0095 C.2     
   2 N2             0.0021    -0.0041     0.0020 N.pl3   
   3 C3             1.2071    -0.6660    -0.0130 C.2     
   4 C4             2.3940     0.0966    -0.0200 C.2     
   5 C5             2.2979     1.4552    -0.0115 C.2     
   6 N6             1.1032     2.0516     0.0025 N.2     
   7 N7             0.9616    -1.9642    -0.0172 N.2     
   8 C8            -0.3621    -2.1621    -0.0054 C.2     
   9 C9            -0.9787    -0.9623     0.0067 C.2     
  10 S10           -1.5606     2.2102     0.0214 S.3     
  11 C11           -0.9775     3.9237     0.0280 C.3     
  12 C12           -1.0498    -3.5030    -0.0056 C.3     
  13 Cl13          -1.3082    -4.0461     1.6942 Cl      
  14 Cl14           3.7411     2.4200    -0.0191 Cl      
  15 H15            3.3595    -0.3873    -0.0314 H       
  16 H16           -2.0446    -0.7890     0.0179 H       
  17 H17           -1.8334     4.5987     0.0357 H       
  18 H18           -0.3699     4.0974     0.9161 H       
  19 H19           -0.3783     4.1070    -0.8639 H       
  20 H20           -2.0122    -3.4177    -0.5100 H       
  21 H21           -0.4285    -4.2299    -0.5288 H       
@<TRIPOS>BOND
   1    1    2 1
   2    1    6 2
   3    1   10 1
   4    2    3 1
   5    2    9 1
   6    3    4 1
   7    3    7 2
   8    4    5 2
   9    4   15 1
  10    5    6 1
  11    5   14 1
  12    7    8 1
  13    8    9 2
  14    8   12 1
  15    9   16 1
  16   10   11 1
  17   11   17 1
  18   11   18 1
  19   11   19 1
  20   12   13 1
  21   12   20 1
  22   12   21 1

#	End of record

